 363 
 
N                54.6930187789       15.6578312428        6.4196057821
C                55.0144691309       15.2863979481        7.7715633793
C                56.4417457982       14.8232834710        7.9612469545
O                56.9870462639       15.1981062421        8.9874049894
C                53.9436598131       14.4070523705        8.4238356926
C                53.1663126785       13.6701112847        7.3588898090
C                54.4950362793       13.4603746830        9.4908168738
H                54.2094720465       15.0020761541        5.8197606440
H                55.0301037511       16.2448279525        8.3312868205
H                53.2347162099       15.0781109023        8.9360479618
H                52.5161170628       12.9204204588        7.8254040530
H                52.5349078195       14.3320009087        6.7850831675
H                53.8494848614       13.1352024754        6.7023821699
H                53.6794141343       12.8853675837        9.9229032348
H                55.2130031102       12.7613751936        9.0625751492
H                54.9916921964       14.0124850782       10.2823970173
N                57.0950977809       14.1874217286        6.9898253144
C                58.5348561684       14.0373631981        7.1287967602
C                59.3489106320       15.3381163442        6.8266274714
O                60.5165958238       15.3727041959        7.1807830290
C                59.2326040884       12.9291049633        6.2943519110
C                58.8460212203       11.4572114241        6.4660903933
C                58.3713353208       10.7612723035        5.0760804653
O                58.3800645412       11.4206148939        4.0023022910
O                57.9789803287        9.5751903298        5.1763667824
H                56.6542957042       13.8863450138        6.1268502031
H                58.7255471413       13.8389902763        8.1923580660
H                59.0614392509       13.1706524679        5.2287337767
H                60.3006908617       13.0475959082        6.4852922166
H                59.6668981967       10.8546352572        6.8458470327
H                57.9971583690       11.3277474979        7.1382788065
N                58.2293918791       19.0997297964        6.5108318067
C                57.6979160224       20.2346244586        7.2187113435
C                57.3812197067       19.9254920203        8.6821096810
O                58.1475544550       20.3417342238        9.5546051081
C                56.5291924374       20.7550425337        6.4235934271
C                57.1993408146       21.4854302721        5.2788233634
C                55.6666307467       21.6657373358        7.2431771094
C                56.3063776305       21.6721793215        4.0604081871
H                57.5641271647       18.3425296212        6.3888116263
H                58.5003016141       20.9824815025        7.2612807061
H                55.9474384244       19.9122710953        6.0459399344
H                57.5331071797       22.4651795009        5.6222479515
H                58.0737334683       20.9182236890        4.9490138760
H                54.9468348529       22.1727573782        6.6006266138
H                55.1001366743       21.1331721284        8.0006014055
H                56.2726335467       22.4260611001        7.7355298128
H                56.8677007463       22.1132170269        3.2417092434
H                55.9132841143       20.7104195363        3.7303549938
H                55.4607087425       22.3190046524        4.2823898405
N                56.2719950459       19.2552049846        8.9970592906
C                55.7952225648       19.2293105844       10.3781228745
C                56.7224737239       18.6288544767       11.3972989555
O                56.7359101085       18.9980063998       12.5640658238
C                54.5193116467       18.4160023780       10.4339905960
C                53.4201043043       19.2328751518        9.7159800055
C                54.1963686393       17.9828134939       11.8656832654
C                52.1723117764       18.4287611033        9.3233580216
H                55.7597057490       18.7689150070        8.2694763407
H                55.5973305016       20.2628289642       10.6891246563
H                54.6943252651       17.4969037628        9.8530991539
H                53.1260105993       20.0698064978       10.3511433472
H                53.8392572715       19.6431158027        8.7980883906
H                53.2031039029       17.5389191452       11.8953454664
H                54.9006956767       17.2344173662       12.2119758716
H                54.2160363557       18.8260300142       12.5493683969
H                51.5098193388       19.0531066739        8.7342981471
H                52.4583780760       17.5632822067        8.7344287577
H                51.6300316240       18.0882977682       10.1985236458
N                57.5050295136       17.6480581068       10.9704536518
C                58.4153855201       17.0650928259       11.9085279025
C                59.7607389110       17.7363310325       12.0082579845
O                60.4355008011       17.4249466863       12.9849569238
C                58.8022392187       15.6367000584       11.5793273711
C                57.6660449266       14.7229448655       11.9145574272
S                58.1697261137       12.9746725166       11.6183981933
C                58.8777844928       12.4865776555       13.2840499628
H                57.3652165304       17.1702461099       10.0763907292
H                57.9702936379       17.0967692152       12.9145628508
H                59.0327139771       15.5315331672       10.5170705134
H                59.6794691805       15.3558635097       12.1627577828
H                57.3662371196       14.8063995954       12.9590507394
H                56.8250325654       14.8843634763       11.2474771595
H                59.6756940674       11.7805905273       13.0780109488
H                59.2575411940       13.3710548438       13.7834445043
H                58.0890018958       12.0053442391       13.8621347562
N                60.1577502283       18.6421936274       11.0953557758
C                61.2065981385       19.4785718666       11.5786014276
C                60.5578900916       20.3987668378       12.5958405975
O                61.1869236916       20.8305455018       13.5665162129
C                61.7631918180       20.1701666138       10.3634485059
C                61.6377984852       19.0953867613        9.3178825884
C                60.2630800582       18.5267486938        9.6608679573
H                61.9754629522       18.8927795469       12.0984684390
H                61.1091549467       21.0022877715       10.0860650691
H                62.7908813123       20.5067874144       10.5108712542
H                61.6583995653       19.4668751233        8.2940395818
H                62.4072501648       18.3275152936        9.4300200555
H                59.5106307313       19.1226285066        9.1661122058
H                60.1514241050       17.4779673693        9.3322638639
N                59.3022582379       20.8353112837       12.3741822193
C                58.8364575892       21.9688310770       13.2411296467
C                58.9760515197       21.5470712707       14.6657661122
O                59.7260975811       22.1138380226       15.4461809563
C                57.4221753377       22.4606669494       12.9612275855
C                57.3444383224       22.8298272659       11.4772303682
C                55.8715772334       23.0512686940       11.1111778252
C                58.2944735399       23.9796435305       11.1597479415
H                58.7219527742       20.4746985308       11.6254579096
H                59.5770501076       22.7684072187       13.1212846517
H                56.7056766632       21.6738339067       13.1915320614
H                57.2193658233       23.3224591705       13.5937714620
H                57.6679311327       21.9585179161       10.8975464303
H                55.7629879723       23.2782580975       10.0529326545
H                55.2895565795       22.1658787415       11.3426668480
H                55.4591709459       23.8821248110       11.6813880051
H                58.4389285769       24.0490175814       10.0892694571
H                57.8490821680       24.9183472545       11.5021418818
H                59.2244955073       23.8582378655       11.6817332897
N                58.1988240815       20.5277490461       14.9712809963
C                58.1692286726       20.1048802499       16.3193665576
C                59.5184466241       19.7099837543       16.9367211254
O                59.5860684439       19.4503268736       18.1289039183
C                57.0916697874       19.0571343451       16.4266194928
C                55.7517148876       19.7100840949       16.1034056775
C                57.0974118687       18.4773503613       17.8193105486
C                54.7063302906       18.6412097846       15.7909647586
H                57.7267273501       19.9831297763       14.2579503354
H                57.8660978234       20.9658552906       16.9443188124
H                57.2967187151       18.2537025852       15.7074414121
H                55.4202140611       20.3036327408       16.9583062653
H                55.8354706608       20.3583777397       15.2329382112
H                56.2170694457       17.8557382241       17.9957947703
H                57.9647812899       17.8462781380       18.0034788529
H                57.1024830909       19.2676927519       18.5666936178
H                53.7368518388       19.0825203356       15.5641032766
H                55.0271822035       18.0526928014       14.9328888739
H                54.5781992984       17.9560105156       16.6252267964
N                60.6212955677       19.7409309285       16.1866746185
C                61.8882839437       19.4718658807       16.8010570321
C                62.8460622114       20.6635333361       16.7785436988
O                64.0152959091       20.5009488642       17.1376681028
H                60.6231501007       19.8693922753       15.1836608695
H                61.6969608832       19.2523665385       17.8552951755
H                62.3780613079       18.6099655651       16.3293649168
N                62.3259863703       21.8087977841       16.3021100153
C                62.9532992974       23.1093500066       16.4558743137
C                62.1955965914       23.9785120721       17.4388584304
O                62.8473814441       24.8348725169       18.0147042317
C                63.1922784201       23.8773248356       15.1494223230
C                64.1245537645       23.0411595099       14.2695822739
C                64.6627930814       23.8153120070       13.0720269330
C                65.2016578642       22.8854621028       11.9691846718
N                66.6905354256       22.6269546588       12.0259074783
H                61.4094336160       21.7673717113       15.8749592431
H                63.9266057853       22.9155980934       16.9292694001
H                62.2346518650       24.0444642237       14.6574975745
H                63.6411341019       24.8312329687       15.4203220895
H                64.9412267558       22.6768624991       14.8923115716
H                63.5553542072       22.1658944106       13.9466432179
H                63.8543364647       24.4240709393       12.6824859851
H                65.4427988887       24.4940608639       13.4144641514
H                64.7090600096       21.9145952956       12.0657632061
H                65.0201763387       23.2811939125       10.9672911800
H                66.9426549866       21.8788968396       11.3654747889
H                67.2383513057       23.4678717802       11.7875638651
H                66.9506734426       22.3137721174       12.9746756763
N                60.8736971693       23.7298000082       17.5172020816
C                59.8249148201       24.4058615129       18.2907715424
C                59.3362305478       23.5379461441       19.5015677667
O                60.2031285185       23.0558372197       20.2225716263
C                58.7859407306       25.1083984510       17.3418885168
C                57.7227067385       24.2227878184       16.6602869957
C                59.5487510105       25.9194066914       16.2545325860
C                56.4566928421       25.0046167792       16.2700609924
H                60.5163810896       22.9660359562       16.9624408406
H                60.3565379178       25.2258341979       18.8050452025
H                58.2656414928       25.8250449072       17.9869972565
H                58.1651948781       23.8079530101       15.7511790937
H                57.4915768709       23.3625498119       17.2867410033
H                58.8523027912       26.5696851571       15.7378101199
H                60.3204816612       26.5262365809       16.7191160440
H                60.0119597149       25.2323791960       15.5550372675
H                55.7063631819       24.3337399040       15.8643291257
H                56.0407604440       25.5318241930       17.1235378704
H                56.7016371058       25.7442955652       15.5125134579
N                58.0271631795       23.4284124719       19.7590502308
C                57.2777955719       22.7391795657       20.8075433989
C                57.8282430924       21.5987899122       21.6647880160
O                57.0809551102       21.1339385793       22.5266036250
C                56.1683649697       21.9617083488       20.0958948079
C                54.9594432907       22.7460630748       19.7532909440
C                54.8849525911       23.4623102619       18.5664492242
C                53.8451550113       22.6457108345       20.5773236578
C                53.7078582262       24.0961912760       18.1938115172
C                52.6576764929       23.2556313991       20.1961088532
C                52.5858782258       23.9840055901       19.0075831359
H                57.3958652657       23.9847841315       19.1970654339
H                56.8447711269       23.4864737368       21.4835296062
H                56.6154997582       21.5145076547       19.1957019886
H                55.8467302650       21.1354208373       20.7314943337
H                55.7277946442       23.4645325218       17.9111042307
H                53.9052158297       22.0748494790       21.4909545868
H                53.6556252970       24.6641169401       17.2799418112
H                51.7817125784       23.1582674299       20.8209415519
H                51.6574566031       24.4565449846       18.7263132425
N                58.9747631560       21.0761650658       21.2664235506
C                59.5423834350       19.8155873166       21.6416690458
C                60.7456534958       19.5634472755       20.7096327782
O                61.1305505956       20.4263841936       19.9487096889
H                59.6288020085       21.6523805403       20.7154737330
H                59.9118310719       19.8190780404       22.6762603883
H                58.8027675114       19.0123604593       21.5489533294
N                61.3316873048       18.3421190019       20.8975695965
C                62.5909903259       17.7852038042       20.3608985301
C                62.3671063337       16.3307704544       19.7851565359
O                62.1255127517       15.3703980067       20.4973662789
C                63.6621574281       17.7524448050       21.4758991773
O                64.9060827557       17.6413757789       20.8457271086
H                60.8678072010       17.7092670418       21.5358500734
H                62.9445762342       18.4461169410       19.5654417071
H                63.6041486411       18.6911891185       22.0424805218
H                63.4409252625       16.9074576505       22.1364185104
H                65.5396410884       17.2122328631       21.4346825849
N                62.4518986300       16.2245726187       18.4472401939
C                61.6462265664       15.3029167844       17.6465104697
C                61.0459168207       14.1349852455       18.4833432188
O                59.8633753688       14.2026428428       18.7860137782
C                62.4268574538       15.0487513188       16.3311058463
C                63.7658328842       14.3356418334       16.5359856380
C                61.5538301382       14.3506718748       15.2814631248
H                62.7295709237       17.0531062718       17.9332166976
H                60.7298214392       15.8493514081       17.3553140131
H                62.6504244215       16.0517496141       15.9443908380
H                64.3921402167       14.4774292760       15.6599395251
H                64.2822613652       14.7316854269       17.4061755012
H                63.6169635734       13.2644375271       16.6613825138
H                62.1556569157       14.0563036509       14.4262278835
H                61.0813766744       13.4581417229       15.6934594603
H                60.7618393452       15.0130334612       14.9385530494
N                61.8618933415       13.1188579972       18.8198601311
C                61.4209593773       11.8208131675       19.2921545014
C                62.3670916394       11.0739155075       20.2581447172
O                63.5514613092       11.3078142374       20.4553502559
C                61.1439854432       10.8827379054       18.1020059189
C                59.6551389957       11.1574570996       17.7524265312
O                58.8154333360       10.5933856972       18.4901881285
O                59.4658536231       11.9489360153       16.8118285332
H                62.8389224714       13.1899431621       18.5746542417
H                60.4734880541       11.9794436906       19.8222855440
H                61.7925472581       11.1264743969       17.2619980492
H                61.2582332421        9.8296693869       18.3659140504
N                53.8020942959        8.4657960351       15.8351721643
C                53.5728206476        8.9565501242       14.5057901292
C                52.1743331163        8.7011362935       14.0415625218
O                51.6555420226        9.5877409673       13.3811530789
C                54.6003684560        8.4201835616       13.5412906291
C                55.8945813148        9.1799113348       13.9951345910
O                56.0373978251       10.3033120709       13.4992489805
O                56.6046826041        8.6293741938       14.8615434855
H                54.5789997206        7.8260368750       15.9817934055
H                53.6799684191       10.0551561927       14.4989043911
H                54.7025447612        7.3389295165       13.6388508129
H                54.3537695202        8.7103419422       12.5213145615
N                51.0514985719       11.8706420957       15.0332821228
C                51.3660606607       13.1387358447       14.3796104857
C                50.9731114909       13.1556291252       12.8460871296
O                50.5956510136       14.1775830623       12.2718081419
C                52.7871718893       13.6928923753       14.6245045563
C                53.5769728907       13.4527536088       13.3734887531
C                53.5363315482       13.1036036085       15.7849792609
C                55.0292157471       13.7301026562       13.6431263266
H                51.7829357226       11.2779093154       15.4038543467
H                50.6483283474       13.8599488405       14.8129532175
H                52.6865052024       14.7710831086       14.7808228812
H                53.4856927460       12.4075557881       13.0549342784
H                53.2271992230       14.0875333325       12.5543700022
H                54.3706612938       13.7368909440       16.0604235027
H                52.8961817658       13.0179292824       16.6675638788
H                53.9165362786       12.1075784822       15.5522104840
H                55.5642003498       13.6702762544       12.6945605295
H                55.1709957935       14.7239214672       14.0646197950
H                55.4833738927       12.9848961045       14.2859494543
N                47.4275834560       14.1249537112       12.9512507280
C                47.3843539268       15.5617266930       12.9470755077
C                47.6486863322       16.1594288903       11.5637665602
O                46.9414943222       17.0433393102       11.0739822672
C                48.4660307135       16.0959613243       13.8643862826
C                48.8877907856       17.4976795543       13.5045305266
C                48.2209436627       18.5895947644       14.0492342775
C                50.0132313169       17.7241876252       12.7196528570
C                48.7158804552       19.8749465548       13.9287105983
C                50.5042588757       19.0123685928       12.5883162745
C                49.8898150395       20.0774786521       13.2297576626
H                47.9871789565       13.6557538498       13.6541050108
H                46.3861267633       15.9029158339       13.2557161000
H                48.1252062664       16.0659205031       14.8999201529
H                49.3388231159       15.4467600071       13.7661539635
H                47.3224370928       18.4117482505       14.6232095158
H                50.5503390169       16.8890711739       12.2932104886
H                48.2118522371       20.6966164144       14.4091610999
H                51.4136161832       19.1846858302       12.0347068542
H                50.3380175741       21.0569376249       13.1755596904
N                65.7700462806       27.3056435268       10.6173767127
C                65.8328717373       25.8954520272       10.9549333757
C                66.3153297894       25.1582937179        9.6580995144
O                67.4955688205       24.8770579200        9.5599580117
H                65.8530159134       27.4553330170        9.6060730313
H                66.5540556303       25.7426594377       11.7596266393
H                64.8373715531       25.5825306979       11.2742713394
N                65.2869924445       24.8354606013        8.8050160567
C                65.1905709677       24.4297016782        7.3576595099
C                64.0169782894       23.4524312410        7.0193534502
O                63.9759607399       22.2582150423        7.2594280660
C                66.5128916990       23.8691152185        6.7686916838
C                66.3876037623       23.7342539380        5.2369271702
C                66.9168167861       22.5222368989        7.4069591002
C                67.7394974449       23.7904178970        4.5175685072
H                64.4214109489       25.3024904612        9.0466164574
H                64.9815178089       25.3501461724        6.8150116003
H                67.2800802765       24.6129252608        6.9925583010
H                65.8923782145       22.7917013359        4.9874495886
H                65.7573828951       24.5158212432        4.8367743772
H                67.6908220015       22.0751819788        6.7947659914
H                67.2520435954       22.6986477631        8.4224634685
H                66.0664283502       21.8473277235        7.4068132863
H                67.5742171143       23.8900697260        3.4487398766
H                68.3336172774       24.6334867152        4.8580224785
H                68.2988276565       22.8705738700        4.6740060104
N                62.9634989662       24.0340029638        6.4171556686
C                61.9712760677       23.1384490345        5.8829571166
C                62.2553625784       22.8347256694        4.4057672665
O                63.3399349663       22.9903329573        3.8839866569
C                60.5473014456       23.6722719045        6.1497260397
C                60.4688128927       24.5245440088        7.3911762849
C                60.8289877980       23.7092896473        8.6133383176
C                61.2202625547       24.6823120674        9.7061486378
N                61.6927447367       24.0299631471       10.9695562875
H                63.0330929681       24.9436227966        5.9816879258
H                62.1096470052       22.1781746853        6.3974022990
H                60.2142805137       24.2690133370        5.2951020317
H                59.8662229242       22.8271244846        6.2577122418
H                61.1381159916       25.3768592129        7.2844994363
H                59.4567173362       24.9215117991        7.4757473049
H                59.9821121045       23.0902767708        8.9101333441
H                61.6635624858       23.0447109884        8.3909116451
H                62.0263736305       25.3231687951        9.3432371206
H                60.3684377666       25.3224115624        9.9490686907
H                61.8151803719       24.7341157948       11.7117132454
H                61.0006079192       23.3285966251       11.2856954848
H                62.5704966545       23.5113817060       10.7966362544
H                54.1599486426       16.3829493493        6.4259272918
H                58.9102385187       16.1049982387        6.3581630257
H                58.4951597544       19.3552838604        5.6898205054
H                62.0231106865       10.3097013304       20.8037212888
H                53.9629982183        9.1580271192       16.3873732635
H                51.7186339565        7.8424470987       14.2760644249
H                50.5256162583       12.0231713921       15.7475528040
H                51.0268730764       12.3151802163       12.3068698047
H                46.5965775664       13.7997266614       13.0681120879
H                48.4209963540       15.8344566382       11.0179366732
H                64.9828541056       27.6453105412       10.8911554537
H                61.5249682000       22.4883559419        3.8170805384
