 481 
 
N                29.8927583736       11.5817269436       10.8798226207
C                30.2915050311       12.2742681737       12.0806519501
C                29.1431577082       12.2547895187       13.0911397329
O                29.3509660972       12.0579574013       14.2924871362
C                30.7274682375       13.7021304216       11.7437634497
C                31.2252776982       14.4608744077       12.9757227437
C                32.4739439238       13.8518386320       13.5903115147
O                33.1285367411       12.9589895279       13.0540246199
N                32.8309165794       14.3684628704       14.7668181363
H                29.9327018884       12.0837296155        9.9963422224
H                31.1250609847       11.7355672275       12.5501266907
H                31.5330403253       13.6354216132       11.0118263383
H                29.8834395781       14.2403256801       11.3132788895
H                31.4499374518       15.4925178964       12.7041300198
H                30.4561295734       14.4787771796       13.7473749849
H                32.3616001517       15.1672579093       15.1834360278
H                33.6474346762       14.0032719602       15.2308338507
N                27.9230371915       12.4850269469       12.5894877563
C                26.7743412260       12.4851513454       13.4677189658
C                26.6774391250       11.1432597212       14.1907413648
O                26.4809874677       11.0877578985       15.4017435854
C                25.4650803473       12.7427239083       12.7295447833
C                25.2316751972       14.2208082836       12.4104473297
C                24.1242304851       14.3575189334       11.3710065745
C                24.8661399962       14.9955373078       13.6697818850
H                27.7940773970       12.7479455964       11.6165236865
H                26.9253124742       13.2301482782       14.2600208016
H                25.4848020252       12.1460374284       11.8155558363
H                24.6472605067       12.3694275968       13.3500741690
H                26.1537261572       14.6345613797       11.9935843915
H                23.9426577107       15.4060391669       11.1503925500
H                24.4014559844       13.8457250482       10.4531510335
H                23.2003898204       13.9231686637       11.7449270525
H                24.5845927068       16.0122153673       13.4174561081
H                24.0270133402       14.5283775313       14.1816273171
H                25.7036161119       15.0303227215       14.3602122475
N                26.7927781070       10.0700427621       13.4097359865
C                26.6800028198        8.7363637349       13.9588559472
C                27.7246458341        8.5292760685       15.0530768904
O                27.4280276260        8.0060965233       16.1206358182
C                26.8048881081        7.6646434666       12.8828327789
C                25.5744520599        7.5929095146       11.9777007024
C                25.8593727726        6.8684491562       10.6388705848
O                27.0175233585        6.9407617576       10.1855946505
O                24.9002762373        6.3183783255       10.0529805610
H                26.9337913133       10.1927150430       12.4106529666
H                25.7109693019        8.6452968052       14.4730026372
H                27.6779899015        7.8862148450       12.2652468460
H                26.9702333023        6.6963328504       13.3598344196
H                24.7287363607        7.1157173756       12.4699831585
H                25.2867300244        8.6055140539       11.6821463801
N                28.9537894428        8.9836504426       14.7768516007
C                30.0501178952        8.7780685923       15.7078466300
C                29.7829203778        9.5110048404       17.0288953190
O                29.9125812714        8.9641405395       18.1298215242
C                31.3701181650        9.2656500276       15.0822013200
O                31.6838080407        8.5375269014       13.9210040878
C                32.5249805638        9.0909098068       16.0543762270
H                29.1550586944        9.3381791106       13.8466078895
H                30.1299185708        7.7067536938       15.9447732724
H                31.2460104698       10.3332559413       14.8329673379
H                31.0241360708        8.7145771180       13.2324378775
H                33.4553192685        9.3530092746       15.5609040333
H                32.3901805470        9.7249097934       16.9253211896
H                32.5760619624        8.0526982066       16.3725761061
N                29.4408335220       10.7925610970       16.9236307915
C                29.1619114687       11.5536876086       18.1282795312
C                27.9359043138       11.0074248794       18.8585963607
O                27.9378712405       10.9241240962       20.0812721728
C                29.0052603415       13.0581103088       17.8318053225
C                28.5312747035       13.7997637036       19.0823573308
C                30.3292266453       13.6382985956       17.3346926459
H                29.2989206716       11.2325668081       16.0202981796
H                30.0031664604       11.4060526153       18.8184983690
H                28.2533622150       13.1581633674       17.0433591482
H                28.4377956492       14.8586147441       18.8572652891
H                27.5650052894       13.4344635881       19.4144735235
H                29.2426555339       13.6565939767       19.8891365450
H                30.2211445491       14.7051333663       17.1656634590
H                31.1142035839       13.4740100179       18.0672855483
H                30.6284219643       13.1707030572       16.3998216496
N                26.8731212058       10.6845026346       18.1196703645
C                25.6494442641       10.2524087571       18.7693111659
C                25.8723445142        8.9325274506       19.4961926683
O                25.3621021419        8.7166415125       20.5873451986
C                24.4997249699       10.1639712897       17.7753176699
C                23.1701738276        9.6852143071       18.3883410962
C                22.7619604104       10.5071067037       19.6107072049
C                22.0811695143        9.7685740141       17.3129657565
H                26.8681699672       10.7675621830       17.1106423955
H                25.4022676887       10.9859636308       19.5484777846
H                24.3646549799       11.1537033871       17.3359291766
H                24.7885925435        9.4814202967       16.9734019461
H                23.2776942142        8.6388494076       18.6880727270
H                21.7537738470       10.2368511108       19.9146586449
H                23.4266584734       10.3135021986       20.4469707603
H                22.7854528325       11.5683952501       19.3799215060
H                21.1176708633        9.4799634382       17.7224867261
H                22.0072169793       10.7807815048       16.9241335516
H                22.3170595262        9.0957649315       16.4960996684
N                26.7001383857        8.0697472561       18.9060174653
C                27.0441070696        6.8147048848       19.5412657550
C                27.7235506254        7.0560612213       20.8979704809
O                27.4208099079        6.4199922539       21.9000072661
C                27.9555162629        6.0149479208       18.6203696018
C                28.4191011956        4.7153688016       19.2578084123
C                28.6983695957        3.6241919542       18.2186739372
O                28.7590932116        3.8984497881       17.0145357429
O                28.8166394757        2.4562281800       18.7063737949
H                27.0263315701        8.2088980480       17.9574295468
H                26.1283211447        6.2443571290       19.7557052873
H                27.4241683932        5.7903831971       17.6928494302
H                28.8217507352        6.6172139779       18.3465274828
H                29.3355583409        4.8601510066       19.8324491423
H                27.6686656628        4.3118152349       19.9421147431
N                28.6560224709        8.0096828833       20.8918781090
C                29.3764199376        8.3832362114       22.0844251297
C                28.4177680936        8.8737630831       23.1671156800
O                28.4752757924        8.4596080045       24.3268932371
H                28.9133692811        8.4407383402       20.0126942727
H                29.9260182525        7.5271393117       22.4905022927
H                30.0734644187        9.1810096704       21.8304159624
N                27.5605670710        9.8143440950       22.7734220912
C                26.5752576421       10.3552832182       23.6952406433
C                25.7473078469        9.2258026148       24.2992894665
O                25.6307579056        9.0924231689       25.5138335347
C                25.7133206761       11.4027667255       22.9836490600
C                24.3554902105       11.5874611299       23.6544009893
C                26.4788223097       12.7217104270       22.9467298588
H                27.5605514618       10.1402261609       21.8087161803
H                27.0988386474       10.8161712363       24.5436996525
H                25.5490591031       11.0482072851       21.9610838774
H                23.8369599406       12.4339430689       23.2132397531
H                23.7342988533       10.7040038633       23.5331471838
H                24.4729173088       11.7708536134       24.7187540408
H                25.9089408945       13.4523243009       22.3802977401
H                26.6123403355       13.0922780278       23.9598305394
H                27.4426033409       12.5803610115       22.4665489591
N                25.1552568919        8.4156420807       23.4270981298
C                24.3276458273        7.3280389473       23.8962681755
C                25.0726664879        6.5091186097       24.9526441561
O                24.5588446758        6.1641469363       26.0092009893
C                23.8964043870        6.4403382662       22.7235731291
C                23.4036063970        5.0945851775       23.2386350113
C                22.7918157359        7.1373296446       21.9302335191
H                25.2835010214        8.5231055308       22.4246674517
H                23.4394672264        7.7369961978       24.4003644227
H                24.7716518482        6.2876617234       22.0844963680
H                22.9482223854        4.5522235065       22.4232356814
H                24.2140632815        4.5016399452       23.6578305701
H                22.6704597616        5.2391482446       24.0290015697
H                22.5416203889        6.5563150137       21.0472316819
H                21.9044019842        7.2452624625       22.5440745914
H                23.1259680236        8.1148989905       21.5991816947
N                26.3286787293        6.1975435243       24.6220049109
C                27.0907501110        5.2639257433       25.4099044599
C                27.1976117290        5.7760384114       26.8539036964
O                27.0309740319        5.0608030110       27.8374897944
C                28.4492073281        5.1299164518       24.7254233433
O                29.1771063073        4.0966613600       25.3168092190
H                26.6632548015        6.3617434593       23.6774581050
H                26.6022714284        4.2788191544       25.4489763721
H                28.2597297919        4.9216174600       23.6635581718
H                28.9829313712        6.0887837899       24.8062170855
H                29.9293649432        3.8669632013       24.7577514265
N                27.5062992026        7.0737368398       26.9766519624
C                27.7039752382        7.6115018703       28.3042604958
C                26.3550918568        7.8200526230       29.0038428402
O                26.2597090701        7.7394094554       30.2244464197
C                28.6036902318        8.8442605896       28.2797990972
C                27.8878185722       10.0901272827       27.7647230126
C                28.8839095327       11.0673425107       27.1608064325
O                29.1732378020       12.1431509420       27.6788085758
N                29.3844662938       10.6669419500       25.9829049625
H                27.6637737313        7.6472747376       26.1577348995
H                28.2107492603        6.8302730767       28.8879447072
H                28.9761595047        9.0272132541       29.2877842108
H                29.4603708148        8.6070223063       27.6466588807
H                27.1705470288        9.8154257177       26.9887698038
H                27.3511862184       10.5820310397       28.5744683745
H                29.1257099740        9.7778520408       25.5788637199
H                30.0441750947       11.2616328740       25.4953838427
N                25.2942200650        8.0606191356       28.2360702948
C                23.9866797873        8.0414873762       28.8616765608
C                23.7514719671        6.6803526328       29.5003569640
O                23.2263901374        6.5939946785       30.6009458197
C                22.8619385536        8.4497932109       27.8966756506
C                22.8206782764        9.9811107185       27.8089532020
C                21.5330219997        7.8528448192       28.3535177894
C                21.8332929906       10.4936028693       26.7697081459
H                25.3590941981        8.1318634471       27.2292088573
H                24.0016412897        8.7523792553       29.6999048936
H                23.1114635763        8.0346752061       26.9143385275
H                22.5586539610       10.3853159751       28.7874926067
H                23.8224265990       10.3296852702       27.5502374512
H                20.7105950951        8.1976196019       27.7362840407
H                21.5627178585        6.7676707190       28.2871275506
H                21.3300808701        8.1207866493       29.3867814336
H                21.9100627540       11.5731398810       26.6850285374
H                22.0542047753       10.0553383197       25.7992867072
H                20.8119979754       10.2471280515       27.0454891166
N                24.1723257850        5.6077327688       28.8389405204
C                23.9784847619        4.2996989479       29.4265689711
C                24.8340868293        4.1512120510       30.6887204378
O                24.4000362442        3.6017051995       31.6966590712
C                24.2846887886        3.1939703467       28.4251587260
C                23.0861539932        2.9339768992       27.4514715352
O                21.9395299976        3.1009728798       27.9284564790
O                23.3590300727        2.5358119742       26.3108377140
H                24.4900077872        5.6700737541       27.8810263518
H                22.9281128469        4.2009647090       29.7423185278
H                25.1790639989        3.4262615515       27.8469847521
H                24.4523677120        2.2555149033       28.9604292633
O                31.5504967809        6.7721222168       18.5308128110
H                32.2589288213        7.0381683025       19.1229193945
H                30.9860646243        7.5547677819       18.4100436211
O                29.9791924149       13.2063112365       25.1475674718
H                29.8658738316       13.1631386304       26.1117241457
H                29.1016633949       13.3426825393       24.7793299583
O                23.4413070839        5.4461490015       14.8189746124
H                24.0363261127        6.2009014975       14.7735757450
H                22.6916603324        5.6484579784       14.2476094317
O                23.3828206465        5.9279254497       17.5346711738
H                24.2011952808        5.5230599289       17.8266151600
H                23.2564745283        5.6166909132       16.6247377296
O                18.7109050272        5.9956156898       25.1475674718
H                18.7301757452        6.1153387647       26.1117241457
H                19.2677705498        6.6873924623       24.7793299583
O                28.0898434972       17.5776929318       14.8189746124
H                27.1386991477       17.7156182785       14.7735757450
H                28.2894621595       16.8273253127       14.2476094317
O                27.7018560728       17.2861539672       17.5346711738
H                27.6432925818       18.1973199506       17.8266151600
H                28.0345661471       17.3323522874       16.6247377296
N                19.1143321209        8.1369404922       12.5894877563
C                19.6887878358        9.1316781803       13.4677189658
C                18.5751266506        9.8865436736       14.1907413648
O                18.6252864909       10.0844267108       15.4017435854
C                20.5664826580       10.1367450800       12.7295447833
C                21.9632438509        9.5998376817       12.4104473297
C                22.6353611027       10.4905576107       11.3710065745
C                22.8169464675        9.5290359396       13.6697818850
H                19.4065062477        8.1171636255       11.6165236865
H                20.2584884813        8.6284347777       14.2600208016
H                20.0398761693       10.4180088459       11.8155558363
H                20.6521084893       11.0316459934       13.3500741690
H                21.8605390630        8.5944415787       11.9935843915
H                23.6341926485       10.1235441293       11.1503925500
H                22.0535218470       10.5063702283       10.4531510335
H                22.7211230673       11.5078022303       11.7449270525
H                23.8381891391        9.2645240149       13.4174561081
H                22.8319375614       10.4893208290       14.1816273171
H                22.4283334615        8.7863676416       14.3602122475
N                16.8897155345        7.6687232372       16.9236307915
C                17.6883314558        7.5297135652       18.1282795312
C                17.8282576325        8.8645982712       18.8585963607
O                17.7551335748        8.9045452543       20.0812721728
C                19.0695252957        6.9131660708       17.8318053225
C                19.9488087955        6.9528229769       19.0823573308
C                18.9099999392        5.4764834746       17.3346926459
H                17.3417280834        7.5716205152       16.0202981796
H                17.1398483052        6.8749828680       18.8184983690
H                19.5321228494        7.5143024201       17.0433591482
H                20.9125402225        6.5043526925       18.8572652891
H                20.1155843224        7.9722868942       19.4144735235
H                19.4691297596        6.4083339695       19.8891365450
H                19.8879470004        5.0366679302       17.1656634590
H                18.3752333880        4.8788177932       18.0672855483
H                18.3554526647        5.4511704968       16.3998216496
N                18.0799903191        9.9464565638       18.1196703645
C                18.3176245152       11.2222388201       18.7693111659
C                17.0631236488       11.6891421943       19.4961926683
O                17.1312821282       12.2389680198       20.5873451986
C                18.8158950689       12.2621436699       17.7753176699
C                19.0660549309       13.6529472259       18.3883410962
C                19.9819413341       13.5955242171       19.6107072049
C                19.6827487115       14.5543727726       17.3129657565
H                18.1543976174        9.9092146880       17.1106423955
H                19.0764899586       11.0695225768       19.5484777846
H                19.7405632032       11.8842516637       17.3359291766
H                18.0803547828       12.3532525092       16.9734019461
H                18.1061161529       14.0830142895       18.6880727270
H                20.2519864068       14.6037671893       19.9146586449
H                19.4819258830       13.1166810613       20.4469707603
H                20.8892979650       13.0445349096       19.3799215060
H                19.9145539464       15.5330923689       17.7224867261
H                20.5963223797       14.1123138013       16.9241335516
H                18.9821339481       14.6864905711       16.4960996684
N                16.9826879859        9.7861902507       22.7734220912
C                17.9438097229       10.3690236850       23.6952406433
C                17.3796257249       11.6507895425       24.2992894665
O                17.3223907070       11.8184144753       25.5138335347
C                19.2819255333       10.5917412404       22.9836490600
C                20.1207908122       11.6753097154       23.6544009893
C                20.0414134682        9.2693255283       22.9467298588
H                17.2649179382        9.6232627357       21.8087161803
H                18.0811599523        9.6851452244       24.5436996525
H                19.0569988372       10.9112756557       21.9610838774
H                21.1131308102       11.7011291323       23.2132397531
H                19.6662900548       12.6550058447       23.5331471838
H                20.2208998127       11.4819186235       24.7187540408
H                20.9590843509        9.3975503741       22.3802977401
H                20.2955754113        8.9684117257       23.9598305394
H                19.4371107679        8.5053413793       22.4665489591
N                21.8373891160       17.9305543259       18.1196703645
C                22.8234318615       17.0868659471       18.7693111659
C                23.8550324779       17.9398438794       19.4961926683
O                24.2971163708       17.6059039920       20.5873451986
C                23.4748806021       16.1353985648       17.7753176699
C                24.5542718823       15.2233519913       18.3883410962
C                24.0465988964       14.4588826035       19.6107072049
C                25.0265824151       14.2385667376       17.3129657565
H                21.7679330563       17.8847366532       17.1106423955
H                22.3117429936       16.5060273168       19.5484777846
H                22.6852824577       15.5235584735       17.3359291766
H                23.9215533146       16.7268407184       16.9734019461
H                25.4066902737       15.8396498273       18.6880727270
H                24.7847403871       13.7208952243       19.9146586449
H                23.8819162846       15.1313302644       20.4469707603
H                23.1157498434       13.9485833646       19.3799215060
H                25.7582758312       13.5484577173       17.7224867261
H                24.1869612818       13.6684182183       16.9241335516
H                25.4913071666       14.7792580217       16.4960996684
N                22.2472455840       18.9609791787       22.7734220912
C                22.2714332758       17.8372066211       23.6952406433
C                23.6635670691       17.6849213671       24.2992894665
O                23.8373520282       17.6506758801       25.5138335347
C                21.7952544314       16.5670055584       22.9836490600
C                22.3142196181       15.2987426790       23.6544009893
C                20.2702648630       16.5704775689       22.9467298588
H                21.9650312409       18.7980246278       21.8087161803
H                21.6105020412       18.0601970636       24.5436996525
H                22.1844427005       16.6020305836       21.9610838774
H                21.8404098901       14.4264413231       23.2132397531
H                23.3899117328       15.2025038163       23.5331471838
H                22.0966835194       15.3087412874       24.7187540408
H                19.9224753955       15.7116388493       22.3802977401
H                19.8825848940       16.5008237709       23.9598305394
H                19.9107865320       17.4758111335       22.4665489591
N                24.6612121502       17.5772704668       23.4270981298
C                26.0169096253       17.4043398270       23.8962681755
C                26.3536051111       18.4590068143       24.9526441561
O                26.9092702498       18.1865099086       26.0092009893
C                27.0013016862       17.4747241252       22.7235731291
C                28.4131570433       17.7208250912       23.2386350113
C                26.9499837719       16.1696266034       21.9302335191
H                24.5040240077       17.6346014158       22.4246674517
H                26.1068315578       16.4306759703       24.4003644227
H                26.6958997203       18.3090489325       22.0844963680
H                29.1105480342       17.5976318042       22.4232356814
H                28.5214342352       18.7191739580       23.6578305701
H                28.6545350725       17.0136199467       24.0290015697
H                27.5782548757       16.2434583924       21.0472316819
H                27.3002180855       15.3471373418       22.5440745914
H                25.9363077405       15.9702263003       21.5991816947
N                24.8991894531       17.8751275774       28.2360702948
C                25.5695281816       16.7523303602       28.8616765608
C                26.8659093575       17.2292017844       29.5003569640
O                27.2032384546       16.8176465580       30.6009458197
C                25.7782955731       15.5741229617       27.8966756506
C                24.4727658489       14.7727317597       27.8089532020
C                26.9597263220       14.7217216624       28.3535177894
C                24.5226272699       13.6613849435       26.7697081459
H                24.8050530030       17.8956880690       27.2292088573
H                24.9463970038       16.4098414618       29.6999048936
H                26.0130357995       15.9977769727       26.9143385275
H                24.2537259860       14.3437094178       28.7874926067
H                23.6700172706       15.4659839794       27.5502374512
H                27.0723560539       13.8370916789       27.7362840407
H                27.8846667309       15.2900260806       28.2871275506
H                26.8291524552       14.4119985737       29.3867814336
H                23.5493359117       13.1881010029       26.6850285374
H                24.7917196110       14.0718324358       25.7992867072
H                25.2467282311       12.9001549245       27.0454891166
N                22.4823764186       -1.0913766377       22.3322776082
C                23.2388575388       -0.5695671465       21.2090005511
C                22.8741044459       -1.2956302387       19.9085426945
O                22.7106878434       -0.6690469671       18.8686492594
C                24.7457585900       -0.6859690539       21.4267509140
C                25.3248782563        0.3784944151       22.3591033484
S                26.0202964119        1.8419870770       21.4972612905
C                24.5253744591        2.6506003669       20.8771680537
H                22.9669186186       -1.5247831863       23.1119006901
H                22.9373924782        0.4725595488       21.0513085225
H                24.9299226257       -1.6837789814       21.8292403006
H                25.2433055938       -0.6170120145       20.4581194160
H                24.5955107662        0.7189781557       23.0922442519
H                26.1885112047       -0.0152718470       22.8905788508
H                24.8100810176        3.6629018135       20.6093494681
H                24.1382944769        2.1289920762       20.0061400164
H                23.8043895512        2.6728669430       21.6859209577
N                19.8013437540        0.1055078603       18.6541853456
C                20.0079403120        1.4040917990       18.0534664005
C                20.7153180219        1.3243215825       16.6937803469
O                20.6902811104        2.2825577331       15.9211143383
C                20.8342583300        2.2805187884       18.9866454110
C                20.0333518237        2.6900393380       20.2207152570
C                20.9064855711        3.5332598518       21.1627218699
N                21.0810086565        2.9779681162       22.4927223850
C                20.3593819032        3.3698730313       23.5499906721
N                19.2272014116        4.0296502039       23.3678684966
N                20.7826621757        3.1012461949       24.7862136376
H                20.1695205897       -0.0712509009       19.5830244479
H                19.0264584046        1.8634601738       17.8611086230
H                21.7172500096        1.7042277366       19.2675223776
H                21.1411715196        3.1704471268       18.4357105395
H                19.1494040932        3.2391116230       19.8981650854
H                19.6751324362        1.7974782562       20.7366264958
H                21.8982065340        3.6217210379       20.7147955362
H                20.5065721722        4.5422495825       21.2683828523
H                21.7685654088        2.2533809368       22.6267720394
H                18.7889714387        4.0461868097       22.4628217347
H                18.7970791825        4.5688932257       24.1203707383
H                21.7346515435        2.8093999814       25.0053799966
H                20.2780642074        3.5103661274       25.5569645457
N                21.4101107834        0.2201654970       16.4371765540
C                22.0698773470       -0.0072060951       15.1778257077
C                21.2116619046       -0.8200172966       14.2029191346
O                21.6553256502       -1.1777736854       13.1212677290
C                23.4502676322       -0.6393925295       15.3820280763
C                24.3589391676        0.2980744050       16.1744110159
C                25.8210945690       -0.1478432982       16.2285314569
C                26.6261232643        0.9110934492       16.9847006559
N                28.0785936334        0.6489742263       17.0374431769
H                21.4304316831       -0.5262130442       17.1194794764
H                22.1845843966        0.9786775949       14.7059564829
H                23.3151522246       -1.5769980391       15.9226387653
H                23.8608531217       -0.8514785082       14.3949464681
H                24.3133795011        1.2864393272       15.7152873180
H                23.9596900478        0.3774249328       17.1858468320
H                25.8910323556       -1.1127921673       16.7299800844
H                26.2010961952       -0.2492881788       15.2115139453
H                26.4870609517        1.8839441445       16.5117609996
H                26.2650184819        0.9825380907       18.0120749757
H                28.5269436449        1.4336142640       17.7534159791
H                28.2716963991       -0.2856250402       17.4020308850
H                28.5046962037        0.7594781867       16.1162726742
N                34.5349560629       17.0957127899       18.6541853456
C                33.3070511041       16.6253386881       18.0534664005
C                33.0224452830       17.2778308632       16.6937803469
O                32.2051068896       16.7770301865       15.9211143383
C                32.1348840577       16.9027375886       18.9866454110
C                32.1806821115       16.0043719333       20.2207152570
C                31.0138648519       16.3389176825       21.1627218699
N                31.4075000587       16.7677049759       22.4927223850
C                31.4289138230       15.9468054179       23.5499906721
N                31.4236202765       14.6364197641       23.3678684966
N                31.4499113512       16.4476903050       24.7862136376
H                34.5039452226       17.5029426633       19.5830244479
H                33.3999673755       15.5456662355       17.8611086230
H                32.1924709087       17.9555763403       19.2675223776
H                31.2107269143       16.7235680383       18.4357105395
H                32.1471454294       14.9643146005       19.8981650854
H                33.1327723765       16.1404253845       20.7366264958
H                30.4413947360       17.1535426368       20.7147955362
H                30.3400108123       15.4880876544       21.2683828523
H                31.6912325872       17.7254401795       22.6267720394
H                31.6284141422       14.2486331721       22.4628217347
H                31.1716832353       13.9943014761       24.1203707383
H                31.2266629022       17.4180603884       25.0053799966
H                31.3479020806       15.8061356795       25.5569645457
H                30.4189516917       10.8615470827       10.7595663943
H                25.7688873583        4.5060696772       30.7036882702
H                19.3055382675        7.3145909353       12.9012270956
H                17.7882077111       10.2289522852       13.6774043164
H                16.2410772770        7.0448228890       16.9195361009
H                16.1637680819       11.5482113682       19.0823109623
H                16.7291402937        8.9772049024       23.0755086251
H                17.0450182634       12.3798405120       23.7021943899
H                21.0161221541       17.7200122944       18.4216515399
H                24.1826605858       18.7891740605       19.0823109623
H                21.6734175672       19.5850505953       23.0755086251
H                26.1188601877       19.4180698914       24.7942369751
H                24.0539451224       17.9280687994       28.5406343250
H                27.4489274527       17.8840176699       29.0194140808
H                22.0108077150       -0.4255576363       22.7121565564
H                22.7674647593       -2.2899176126       19.9040044879
H                18.9187407048       -0.0546015021       18.7275123496
H                20.2736622415       -1.0655873650       14.4475657645
H                35.1149163628       16.4114108090       18.7275123496
H                33.5020869456       18.1149331824       16.4307146083
