 376 
 
N               -31.3046026270       67.4569855652       18.1626200832
C               -32.6341255654       67.5797466651       17.6083004187
C               -33.0507167345       66.3253904901       16.8864908866
O               -34.2229572700       65.9945357454       16.8269287795
C               -32.6946552234       68.7540295207       16.6623819080
C               -32.8972855102       70.0603289284       17.4348800273
C               -32.2181233658       70.1182151246       18.8137525326
C               -32.4303424295       71.2110601157       16.5386055725
H               -30.6216383141       68.1765761051       17.9842246471
H               -33.3705345843       67.7028643737       18.4153895190
H               -31.7768913307       68.7745998430       16.0834713413
H               -33.5245517410       68.6159791824       15.9686921231
H               -33.9701023339       70.1887286174       17.6144778054
H               -32.4702022756       71.0735527120       19.2682566397
H               -32.5558424075       69.3407611406       19.4890047559
H               -31.1325812494       70.0723856009       18.7323388957
H               -32.7499115594       72.1617631908       16.9598102855
H               -31.3478199086       71.2271840131       16.4610405937
H               -32.8696661246       71.1151134569       15.5504085414
N               -32.0791583013       65.6242118510       16.3101433889
C               -32.3882200403       64.2673598091       15.9593725640
C               -32.7045205439       63.4310306753       17.2055078975
O               -33.8274609796       62.9529396834       17.3189838657
C               -31.2978565534       63.5969346093       15.1470774560
C               -31.7795470963       62.2104390857       14.7061671260
C               -32.9671565300       62.3808486451       13.7733090629
O               -34.0757471246       62.7361816216       14.1434520313
N               -32.6678875852       62.2107024689       12.4708786844
H               -31.1339430581       65.9720190475       16.2730664659
H               -33.3305969103       64.2802064155       15.3965995673
H               -31.0906734730       64.2062822373       14.2651197937
H               -30.3894532066       63.5093294602       15.7409260118
H               -30.9781942943       61.6764696823       14.1995973597
H               -32.0980369783       61.6210071550       15.5671059534
H               -31.7850992120       61.8194728570       12.1907299396
H               -33.4110518902       62.2226126201       11.7902768323
N               -31.7220382033       63.2181100214       18.1021946889
C               -31.8978911959       62.2154563811       19.1662151292
C               -33.2918494033       62.4125138318       19.8470893687
O               -33.9387795006       61.4741772252       20.3090821782
C               -30.6047090787       61.9404558564       20.0347006782
C               -30.3332285565       62.5912047501       21.4190625348
C               -29.3383662395       61.8462972091       22.3595311249
O               -29.2843250414       60.6373450700       22.5215939871
N               -28.4715422108       62.6574365337       23.0183537119
H               -30.8054292827       63.6257688536       17.9450660222
H               -32.0525698681       61.2589105442       18.6376581471
H               -30.6182753292       60.8653329433       20.2240644167
H               -29.7695251466       62.1516214178       19.3666821062
H               -30.0078819661       63.6234391775       21.3108818660
H               -31.2771125042       62.6129866882       21.9738920324
H               -28.6985430670       63.6272213557       23.1930058233
H               -27.9212495261       62.2190456715       23.7437940186
N               -33.7426917584       63.6655040788       19.8070181424
C               -34.9929965914       64.0661012904       20.3791853042
C               -36.1217874227       63.8309028175       19.4022479249
O               -37.0478906709       63.0974434834       19.7783678058
C               -34.8453676876       65.4709141079       20.9486929737
C               -33.9049227439       65.4109124801       22.1500922927
C               -34.3920354773       65.1764162353       23.4348681087
C               -32.5152783524       65.5524596737       22.0385711273
C               -33.5661245488       65.1271172496       24.5516817081
C               -31.6732400641       65.5159725629       23.1425956810
C               -32.1908545791       65.3209486649       24.4242163922
O               -31.4167218527       65.3213948735       25.5405429919
H               -33.1371514423       64.3941550931       19.4532176818
H               -35.2067830908       63.3673753825       21.2047056100
H               -34.4360873239       66.1186819168       20.1742981540
H               -35.8214604344       65.8402328708       21.2577514109
H               -35.4542110497       65.0377468606       23.5805727407
H               -32.0808787853       65.7005192639       21.0725383303
H               -33.9734832589       64.9495377683       25.5354672775
H               -30.6071391231       65.6522897659       23.0492161870
H               -30.4629744197       65.4264715083       25.3030303199
N               -36.1395353454       64.2944707078       18.1716130723
C               -37.2311787389       63.8101890819       17.3320496324
C               -37.4627218176       62.2956471544       17.5041033351
O               -38.6061730797       61.8856835344       17.6976553497
C               -36.9815417294       64.1751298882       15.8698471362
C               -38.2407675596       64.0487029085       15.0006412670
C               -37.8726896188       64.1497875303       13.5028812072
N               -39.0809168739       64.2185252778       12.6618848559
C               -39.1631595466       64.2854671784       11.3286329470
N               -38.0633075827       64.2970238107       10.5744540923
N               -40.3687300740       64.3954036670       10.7426479208
H               -35.4072786193       64.8521923178       17.7343214465
H               -38.1622603997       64.2622041786       17.6798434503
H               -36.6110872546       65.2013567538       15.8510454834
H               -36.1912653557       63.5301559312       15.4793732114
H               -38.7124322265       63.0860773066       15.1990353918
H               -38.9417123293       64.8396726972       15.2658899546
H               -37.2692412434       65.0482731468       13.3486710461
H               -37.2739818291       63.2726834481       13.2399378334
H               -39.9479041761       64.1407172359       13.1755990853
H               -37.1602410454       64.1645818014       11.0008780948
H               -38.1166478993       64.2954796952        9.5684473196
H               -41.2152139956       64.3053464608       11.2822553027
H               -40.4422202005       64.3470237494        9.7422796084
N               -36.3678680466       61.5255624269       17.3350420426
C               -36.3311091518       60.0687550139       17.3250365076
C               -36.5715847977       59.4728356250       18.7212582453
O               -36.3802738346       58.2874240149       18.9635115507
C               -35.0534006676       59.4089110157       16.7485073981
C               -35.0415382759       59.0216182632       15.2507017536
C               -34.3060830036       57.6572572350       14.8361800145
O               -33.1802918331       57.7621067884       14.3080035423
O               -34.9403131087       56.5939174862       14.9970038545
H               -35.4741950397       61.9939527143       17.2208085205
H               -37.1976081441       59.7244021493       16.7389891281
H               -34.2009407324       60.0524943973       16.9774637090
H               -34.9340821929       58.4827138540       17.3172126738
H               -36.0681736357       58.8825517305       14.9071891146
H               -34.5837606470       59.8190807988       14.6614969252
N               -37.1497239189       60.3063054820       19.5859296055
C               -37.5919570198       59.8002086049       20.8497625979
C               -38.9209753145       60.4068666774       21.2353694478
O               -39.7363480244       59.7515125722       21.8722042286
C               -36.5152212755       59.9064533252       21.9218756823
C               -37.0304268328       59.3805367175       23.2496502643
S               -37.8581758411       57.7270790527       23.1493306336
C               -37.5239719734       57.2150520871       24.8771576417
H               -37.0117916688       61.3093583474       19.5117425868
H               -37.7847034986       58.7294214530       20.7119446176
H               -35.6490261958       59.3385841375       21.5777213572
H               -36.2107364047       60.9499366679       22.0364065386
H               -36.2048163650       59.2737673967       23.9527330237
H               -37.7721835670       60.0683146211       23.6542586744
H               -38.0185362821       56.2583816765       24.9961034577
H               -36.4538540029       57.1217831753       25.0326473878
H               -37.9690159771       57.9454969243       25.5422839558
N               -39.2372588484       61.6178708560       20.7820936383
C               -40.6380194997       61.9305471016       20.8929247963
C               -41.3987597594       60.7921884873       20.2608551193
O               -42.2417328185       60.0868719532       20.8056206132
C               -41.0443445855       63.1680461476       20.1315242862
C               -41.1147654318       64.4054359690       21.0237600987
C               -42.4621571189       65.0682889055       20.8327156349
C               -40.8880294636       64.1491833980       22.5020931587
H               -38.5852578842       62.2243573548       20.3045623370
H               -40.9086415542       61.9478408338       21.9493045886
H               -40.3490935641       63.3074509948       19.3040254345
H               -42.0359622835       62.9899900989       19.7107712794
H               -40.3332718248       65.1063910286       20.7073004439
H               -42.5784225522       65.8881000702       21.5333749153
H               -42.5266765741       65.4439357062       19.8203435283
H               -43.2628349753       64.3556711027       20.9926092744
H               -40.8837560597       65.1029197566       23.0275358612
H               -41.6810789676       63.5456763254       22.9287631363
H               -39.9311551181       63.6673889967       22.6805208214
N               -41.1031725770       60.6867339496       18.9684955411
C               -41.8301383003       59.7348108773       18.1724740460
C               -41.8107111218       58.3381151681       18.8314916304
O               -42.8461201234       57.6984889008       18.9561929224
C               -41.2772372705       59.8437266015       16.7418040795
C               -41.6653174194       61.2295642188       16.1968049773
C               -41.7801784160       58.7107113273       15.8538588497
C               -41.2151169180       61.4799324162       14.7561046572
H               -40.2898846727       61.1436980582       18.5748456281
H               -42.8950790485       60.0142069843       18.1722280331
H               -40.1833963846       59.7787707034       16.7963160659
H               -42.7507388526       61.3335336900       16.2537283866
H               -41.2199565811       61.9918888851       16.8344374866
H               -41.3177902019       58.7591986454       14.8727151448
H               -41.5274211569       57.7461288062       16.2906906425
H               -42.8603892777       58.7569055704       15.7398383742
H               -41.4242599674       62.5156070658       14.5037896161
H               -40.1493930718       61.2910170123       14.6566562999
H               -41.7501480852       60.8429131709       14.0591733836
N               -40.6075153947       57.8946077718       19.2609604808
C               -40.3061490226       56.5154139153       19.6445536042
C               -41.0071881681       56.0589820890       20.9249142694
O               -41.1112122420       54.8647557473       21.1790800598
C               -38.8063307579       56.2548445538       19.7991046797
H               -39.8001631636       58.4737336474       19.0881152619
H               -40.6914988995       55.8547286770       18.8536738947
H               -38.6562784528       55.1845439117       19.9098573828
H               -38.2446589016       56.5968581902       18.9335443622
H               -38.4175605921       56.7399387272       20.6899412899
N               -41.5285081694       57.0185687885       21.6923111306
C               -42.3345526829       56.6101792455       22.8129255214
C               -43.8363043451       56.6862623077       22.4961223216
O               -44.6966882085       56.0719921879       23.1271431752
C               -41.8663400599       57.2953260889       24.0697079302
C               -41.2444536374       56.2608657697       25.0508642478
O               -41.5887050381       55.0693185472       25.0228320453
O               -40.4355948588       56.7901593223       25.8599729488
H               -41.2307215063       57.9815942153       21.5944083819
H               -42.1484054014       55.5318330594       22.9534471776
H               -41.1068373092       58.0376609200       23.8299749965
H               -42.6891236942       57.7693026503       24.6028129185
N               -44.0719155928       57.4772267661       21.4379589828
C               -45.3556575992       57.6908351526       20.8068941304
C               -45.8555353634       59.0857099855       21.1947172290
O               -47.0139544831       59.2864080375       21.5452586197
H               -43.2723551989       57.7426913740       20.8794774022
H               -45.2380754503       57.6063999371       19.7252960415
H               -46.0657727481       56.9448642490       21.1717911763
N               -44.9119936833       60.0353979271       21.1990181107
C               -45.0989091918       61.2569171172       21.9363415386
C               -45.2964824429       62.4586248748       21.0356293550
O               -44.5928929392       62.6856986288       20.0650133667
C               -43.8953742732       61.5577048662       22.8252777947
C               -43.6012428982       60.3805640889       23.7466185739
C               -44.1972587117       62.8202875424       23.6146524270
C               -42.2276525718       60.4830891662       24.3728240566
H               -43.9651367315       59.8406149930       20.8966572308
H               -45.9965320155       61.1088211205       22.5487312625
H               -43.0386415632       61.7225349264       22.1742117997
H               -44.3605836403       60.3712473504       24.5341159397
H               -43.6800247373       59.4462866441       23.1932592860
H               -43.3890777559       63.0179829267       24.3128179089
H               -44.2898818864       63.6913789316       22.9703893787
H               -45.1127071801       62.7055013826       24.1869679684
H               -42.1183941749       59.7656526951       25.1799883321
H               -41.4549797976       60.2962273579       23.6319216871
H               -42.0654094048       61.4751808402       24.7912865798
N               -46.2868841713       63.2622782320       21.4539723390
C               -46.7014285083       64.4433068754       20.7410495418
C               -45.9673110474       65.6992095954       21.2148607894
O               -46.1418342363       66.1563672299       22.3433413790
C               -48.1956218697       64.6516675769       20.9504068231
C               -48.7504283666       65.9307528936       20.2417536511
O               -47.9348057166       66.6779725268       19.6592286417
O               -49.9794365776       66.1051034892       20.3295605696
H               -46.7216086307       63.1123210091       22.3501649779
H               -46.4892503529       64.2803271226       19.6831055252
H               -48.7645718008       63.8012658784       20.5740271018
H               -48.4130205422       64.7903132655       22.0128719221
N               -45.1071070661       66.2971757557       20.3910621641
C               -44.5692444261       67.5702538439       20.8143861272
C               -45.5885129889       68.6860624984       21.1261022152
O               -45.3831069316       69.3217078763       22.1537155117
C               -43.6266769530       67.9867897948       19.6882352064
C               -44.1099558053       67.2110580434       18.4597971167
C               -44.8877693426       66.0071337574       18.9882239480
H               -44.0382515947       67.4394871177       21.7652713784
H               -43.6598093978       69.0595534829       19.5034415266
H               -42.6008187888       67.7255720654       19.9382579112
H               -44.7720481860       67.8436921991       17.8690422029
H               -43.2797537547       66.9190193922       17.8207173927
H               -45.8501208083       65.9275966303       18.4732837459
H               -44.3551328025       65.0603289989       18.8751539785
N               -46.4843694079       68.8689312321       24.5453372711
C               -45.6273958367       68.3951389574       25.6150009137
C               -44.6623258022       69.4986668911       26.0358909163
O               -44.3461460965       69.6978855647       27.2105872436
C               -44.9590245420       67.0839863509       25.1951963986
C               -45.6344138259       65.8434581646       25.8278239829
C               -46.6007712277       65.1089740757       24.9020692343
C               -44.5624418115       64.8786809647       26.3220487607
H               -46.7432710748       68.1914283043       23.8437560295
H               -46.2641262288       68.2152195354       26.4964293380
H               -44.9876151365       67.0080223900       24.1090639663
H               -43.9124070058       67.1166988355       25.5042824402
H               -46.2141312916       66.1760678858       26.6973328267
H               -46.8725307783       64.1644620513       25.3634824037
H               -47.5113952960       65.6876938288       24.7578017525
H               -46.1444088026       64.9305099030       23.9409840240
H               -45.0095813224       63.9689759547       26.7077023946
H               -43.8892471929       64.6334207453       25.5081905360
H               -43.9816863130       65.3441523823       27.1148109088
N               -44.1829440407       70.2008188823       25.0280311428
C               -43.3990133770       71.4033729761       25.1914512269
C               -43.6431289751       72.0620220274       26.5733860729
O               -42.7617125078       72.1812719285       27.4119640860
C               -43.6960186674       72.3585124503       24.0205272164
C               -43.8651761700       71.6823697715       22.6369165446
C               -43.7873391839       72.7330086534       21.5240897261
C               -42.8418667190       70.5900213181       22.3312595510
H               -44.5797900772       70.0377825738       24.1116385522
H               -42.3368466687       71.1188086587       25.1724603002
H               -44.6148967101       72.9140758065       24.2159607276
H               -42.8766649856       73.0772603209       23.9679594943
H               -44.8679962563       71.2619101230       22.5852834377
H               -43.9921926474       72.2653967788       20.5641416671
H               -44.5248379791       73.5134075064       21.6849831936
H               -42.7929836051       73.1746804177       21.4829244586
H               -42.9648195986       70.2589674461       21.3047125410
H               -41.8312371908       70.9857832836       22.4269613983
H               -42.9318088879       69.7202684543       22.9723687370
N               -46.5850694863       58.4530595777       31.5242764651
C               -46.4440840860       59.6741391549       30.7928107918
C               -45.7229459041       60.7105082436       31.6487689278
O               -44.5742926275       61.0493532022       31.3699898299
C               -47.8194805112       60.1235457434       30.3335473950
C               -47.8009331597       61.4939416428       29.6523873996
C               -48.7562738842       61.6361046943       28.4558159988
N               -48.2351429390       60.9915118784       27.2412398697
C               -48.3741268498       61.3621175288       25.9606879899
N               -48.8238421682       62.5642939610       25.6078201679
N               -47.9866652464       60.5277706130       24.9850020834
H               -47.5147217415       58.2344129086       31.8546562180
H               -45.7806739393       59.4841331405       29.9364963236
H               -48.1943099033       59.3479757489       29.6610063945
H               -48.4834668336       60.1365948635       31.1977637197
H               -48.0715982951       62.2585508685       30.3788661170
H               -46.7906626177       61.7177231399       29.3057387722
H               -49.7231693917       61.1892554331       28.7076986983
H               -48.9009966424       62.6972241409       28.2566951112
H               -47.8944061082       60.0516491571       27.4021735529
H               -49.0793861867       63.2742982606       26.2769412099
H               -48.9328131976       62.8104646889       24.6386102206
H               -47.6894211878       59.5855756496       25.1842820812
H               -48.1298213346       60.7502736010       24.0129714526
N               -42.0743548815       60.5096538845       31.9178722020
C               -41.2353247538       60.9097286582       30.8316128738
C               -40.8785155792       62.3913924518       30.9627936412
O               -39.7191863522       62.7601579144       30.8415561544
C               -41.8857093832       60.6497426514       29.4813862941
C               -41.2916010148       59.4364563149       28.7831763672
C               -41.8410518515       58.0990883992       29.2722951013
C               -40.7411711812       57.0619182603       29.4725928092
N               -39.7868134781       56.8838751450       28.3398164535
H               -43.0086457876       60.1717602637       31.7190915610
H               -40.2754136273       60.3796614342       30.9176118511
H               -42.9598417812       60.5340097471       29.6183428278
H               -41.7239568793       61.5240101547       28.8468148564
H               -41.4755569858       59.5258425737       27.7122372475
H               -40.2111650709       59.4776657840       28.9353832734
H               -42.3615937445       58.2153150723       30.2236184764
H               -42.5727056502       57.7145279234       28.5604727180
H               -40.1434134999       57.3566831444       30.3386977762
H               -41.2374802701       56.1062567621       29.6297670957
H               -39.1974035615       56.0627430504       28.5033796535
H               -40.2350702655       56.7388930185       27.3477376383
H               -39.1813567662       57.7034462933       28.2389814418
N               -36.9139037535       64.3634937268       30.5893256012
C               -36.6052697566       65.2410784452       29.4914771307
C               -36.2732166066       66.6130090738       30.0844791674
O               -35.2007063111       67.1384586518       29.7991791294
C               -37.8004185823       65.3556278707       28.5227185582
C               -38.1281464646       64.1593016306       27.6322596758
C               -38.2274974572       64.3525952379       26.2498962981
C               -38.4475534065       62.8780857032       28.1077497065
C               -38.5898082472       63.3329201160       25.3789244904
C               -38.8057333177       61.8442577911       27.2407091129
C               -38.8686667986       62.0510960316       25.8569188269
O               -39.1762474727       61.0772059190       24.9396611692
H               -37.8541339954       64.4520401637       30.9715026912
H               -35.7077631901       64.8617203963       28.9900642911
H               -38.6764806257       65.5800541996       29.1366101685
H               -37.6080304651       66.2117899171       27.8739585012
H               -38.0138244687       65.3278788932       25.8390388577
H               -38.4249990634       62.6832897348       29.1648911821
H               -38.6396518929       63.5103667372       24.3188263579
H               -39.0380361044       60.8728841044       27.6449092343
H               -39.4933157760       60.2802016656       25.3825792282
N               -38.2433287233       71.8618586701       17.1738061565
C               -38.9558351915       70.7076528976       16.7236704557
C               -40.4801208707       70.9823565729       16.6541210917
O               -41.2795524942       70.1697368948       17.0851836699
C               -38.6300049519       69.5009859962       17.6032611139
C               -37.6501956286       68.5447303578       16.9494036810
S               -37.4196665200       67.0223530333       17.9133092817
C               -39.1454591367       66.4868801268       18.1458243423
H               -38.3572143176       72.1103863350       18.1494936976
H               -38.6394678868       70.5295791693       15.6852963147
H               -38.2385683891       69.8529545082       18.5591868200
H               -39.5811519360       68.9992859731       17.7866576141
H               -37.9952179647       68.2582728084       15.9553625287
H               -36.6583455071       68.9896204014       16.8724253583
H               -39.1162022231       65.5583584217       18.7045618070
H               -39.6701770161       67.2279109157       18.7404216062
H               -39.6233508791       66.3578002391       17.1821181051
H               -31.3556792326       67.4197621131       19.0603982267
H               -46.3551806387       68.8505672136       20.5054904899
H               -47.2576426896       69.1721826550       24.8918729927
H               -44.5508185551       72.4098530134       26.8081481472
H               -46.3381622240       57.7611754354       31.0043407600
H               -46.1843350382       61.1155425618       32.4381150293
H               -41.6824152600       59.8359554560       32.3678874913
H               -41.5950899125       63.0637006083       31.1485972137
H               -36.8282207520       63.5079815879       30.3233229633
H               -36.9250123107       67.0657762081       30.6928904447
H               -37.3603706746       71.7357006210       17.0535180403
H               -40.8168913007       71.8338855391       16.2522702522
