 292 
 
N                38.9498812905       36.6777447141       89.0353685866
C                39.2386826728       35.9698858684       87.8023948435
C                38.4226078490       34.6794777256       87.7859598454
O                38.4927011545       33.8626309487       88.7016694825
C                40.7337998762       35.6644058242       87.7280529481
H                39.1866402510       36.2082679318       89.9131017037
H                38.9296342309       36.6119100946       86.9727632986
H                40.9460877976       35.0326392258       86.8719985608
H                41.2915616388       36.5931670621       87.6358868194
H                41.0482516929       35.1579024900       88.6373938933
N                37.6046028146       34.5260266590       86.7421773057
C                36.7758351472       33.3487206707       86.5908725756
C                37.4913294490       32.3452300034       85.6846747263
O                38.1295143287       32.7002911606       84.7060702272
C                35.4271692876       33.7391437414       85.9734841673
C                34.4465679593       32.5744359926       85.8267275389
C                33.8672772136       32.0952417908       87.1600865709
C                32.7651176305       31.0555673828       86.9660860442
N                33.3534553308       29.7350712888       86.6406614663
H                37.6359839630       35.1927945930       85.9818865902
H                36.6517790824       32.9267849046       87.5940405137
H                34.9882188607       34.5247280773       86.5921556715
H                35.6324199977       34.1633209972       84.9856135811
H                33.6297635948       32.9273203135       85.1941349116
H                34.9545222927       31.7694657959       85.2944413909
H                34.6466414582       31.6713180288       87.7924470235
H                33.4497433218       32.9520076566       87.6856165974
H                32.1945508320       30.9571456192       87.8884078156
H                32.0953069608       31.3666223491       86.1641145935
H                32.6392839514       28.9730278825       86.4977383591
H                33.9399744969       29.8074263336       85.8045409515
H                33.9929007669       29.4654175963       87.4247022315
N                37.3042836451       31.0607373565       86.0300873959
C                37.7807540692       29.9308390323       85.2638093299
C                36.7128719556       28.8450958686       85.3622545512
O                35.9421358820       28.7895311370       86.3105196183
C                39.1033845970       29.3647862492       85.8006015595
C                40.2031956833       30.4146912926       85.7294731139
S                41.8500308324       29.6558461795       85.5299726155
C                42.1053070629       28.9801208069       87.1861380608
H                36.8542560659       30.8208463366       86.9043953751
H                37.9280896476       30.2744234057       84.2352349668
H                38.9720620174       29.0271583162       86.8314795062
H                39.3977805535       28.5046741078       85.1963914456
H                40.0774669188       31.0482474404       84.8523866357
H                40.2274810195       31.0471275331       86.6175440424
H                43.1056113447       28.5610079946       87.2206908609
H                42.0307134135       29.7731594158       87.9248426779
H                41.3878483326       28.1942242772       87.3987431761
N                36.6155788360       28.0035021218       84.3330751469
C                35.6232152430       26.9360534800       84.3759852313
C                35.9922437296       26.0041269916       85.5424326211
O                37.1101596596       25.5325122663       85.6362969281
C                35.5890821082       26.1966853231       83.0409069584
C                35.0037680918       27.0969287877       81.9504304555
C                35.1678915598       26.4999496207       80.5529489119
C                34.6250887513       27.4766738743       79.5132181819
N                34.8427154898       26.9716587218       78.1289908448
H                37.3254621149       27.9766277297       83.6170690595
H                34.6507036248       27.4007258569       84.5726187116
H                36.6034316960       25.8852125184       82.7874981639
H                34.9853850021       25.2960275406       83.1495288454
H                33.9449903375       27.2589181557       82.1529852233
H                35.5013014392       28.0676278832       81.9803833252
H                36.2270423162       26.3126183831       80.3705745843
H                34.6349396591       25.5503096869       80.5024752041
H                33.5556602915       27.6257466380       79.6652563723
H                35.1253170682       28.4412860431       79.6149401888
H                34.4832972551       27.6452331854       77.4382419122
H                35.8491247291       26.8331449225       77.9550263007
H                34.3606710101       26.0697723481       77.9955774126
N                35.0014532474       25.7922061803       86.4273429703
C                35.1519058392       24.9145533159       87.5622722184
C                35.2675387444       25.6154758732       88.9079662399
O                35.1360404459       24.9969707823       89.9592234228
H                34.0989731765       26.2268477769       86.2914251346
H                34.3260404292       24.1998301166       87.6093225998
H                36.0833193686       24.3513250821       87.4269458132
N                35.4919515930       26.9293225892       88.8678002437
C                35.8425627675       27.6670520011       90.0615547944
C                35.1134801322       28.9997549272       90.0163150062
O                34.8281339999       29.5244314840       88.9417810842
C                37.3697210258       27.9185101364       90.0998241731
C                38.1294897998       26.6272454053       89.9596724336
C                38.4677589228       26.1395942394       88.7016533527
C                38.4791534879       25.8808265770       91.0749317944
C                39.1266312172       24.9372338083       88.5525625030
C                39.1497476788       24.6780206854       90.9402572642
C                39.4717828483       24.1916321980       89.6772936710
O                40.1090766715       23.0038723710       89.4915049816
H                35.6505802606       27.4153783498       87.9911403668
H                35.5368886357       27.0603640162       90.9162979922
H                37.6216955185       28.5898291905       89.2759365060
H                37.6358437478       28.4199795579       91.0294717166
H                38.2185667517       26.7039722002       87.8148241840
H                38.2501126355       26.2550879113       92.0603862130
H                39.3842754640       24.5598043376       87.5758865904
H                39.4468093736       24.1193069244       91.8157709784
H                40.3211143273       22.5929268402       90.3411602416
N                34.7558429743       29.5492507819       91.1667066366
C                34.1201013830       30.8596369239       91.1707276170
C                35.1199057938       31.9477369751       90.7518532453
O                36.3255943059       31.7653639392       90.7313693181
C                33.7431441194       31.0766734116       92.6410138965
C                34.8552337510       30.3279307225       93.3684906673
C                35.0419820206       29.0793417845       92.5103728256
H                33.2631232070       30.8624415688       90.4935283220
H                33.7140290406       32.1288260031       92.9131921460
H                32.7792895724       30.6187239442       92.8542795709
H                35.7638054752       30.9285158056       93.3681424430
H                34.5980163688       30.0850937980       94.3946405734
H                36.0484085389       28.6760345221       92.5943502792
H                34.3102184307       28.3170739306       92.7926470497
N                34.5385748579       33.1201590650       90.4512769169
C                35.2993548712       34.3547661691       90.4253320259
C                36.2131376773       34.3633957378       91.6550822890
O                35.7440137150       34.3851986475       92.7824595341
C                34.3261927244       35.5371119063       90.5005983548
C                33.4705781542       35.6025162182       89.2838531718
N                32.4833746808       34.6923220334       89.0383745650
C                33.5385964632       36.4908733475       88.2431464894
C                31.9598784343       35.0302975601       87.8890279184
N                32.5699973785       36.1129751676       87.3624201151
H                33.5309410759       33.2289231546       90.4325666898
H                35.9118360673       34.4075739836       89.5169768103
H                33.7202565000       35.4164371979       91.4001433529
H                34.8897155025       36.4654872910       90.5965599515
H                34.1713262650       37.3377976719       88.0819949765
H                31.1493521097       34.5135363304       87.4191238032
H                32.3518408619       36.5820100820       86.4973725785
N                37.5277752464       34.3504307511       91.3891205109
C                38.5069598121       34.0719354311       92.4205642063
C                39.4130958426       35.2859896822       92.5997526705
O                39.7796576773       35.9306354496       91.6145524869
C                39.3240962460       32.8397188481       91.9750968307
C                40.0568042545       32.2067466342       93.1062481054
C                41.1817943457       32.6674793327       93.7317248402
C                39.6661023289       31.0232201887       93.8009025473
N                41.5057725752       31.8588719233       94.7818567135
C                40.5984719829       30.8436516736       94.8542379259
C                38.6407627236       30.0918106655       93.6228270975
C                40.4914062264       29.7779383329       95.7420564523
C                38.5480923899       29.0347967710       94.5013338661
C                39.4598611962       28.8833654341       95.5541416062
H                37.8586275396       34.2018856955       90.4392741192
H                37.9607860203       33.8652872320       93.3437352403
H                38.6168637875       32.1274535458       91.5478041829
H                40.0096434166       33.1573435863       91.1865487359
H                41.7794891001       33.5329583616       93.5180059601
H                42.3248861380       31.9784041715       95.3565070512
H                37.9460950710       30.2225760526       92.8087360095
H                41.2044320702       29.6536260450       96.5449629289
H                37.7598752346       28.3072941087       94.3939507706
H                39.3885404214       28.0381768773       96.2210509602
N                44.4768308457       34.5495467292       81.2070979562
C                43.0825839309       34.7942404543       80.9194442750
C                42.9216677825       36.0616880986       80.0903719319
O                43.7121498720       36.9923796637       80.1384233034
C                42.2619361124       34.9510633521       82.2060372103
C                42.2721339290       33.7096540359       83.1008596272
C                41.5643168321       34.0541712736       84.4083248550
C                41.6051265411       32.5077908578       82.4344911577
H                45.0192408857       35.2895037339       81.6335147479
H                42.7223325829       33.9250079778       80.3634141272
H                42.6660084233       35.7966871451       82.7665914496
H                41.2299163017       35.1932663587       81.9436403268
H                43.3121120567       33.4516983281       83.3351280610
H                41.6280488127       33.2208709729       85.1041741316
H                42.0162081150       34.9284967672       84.8728706417
H                40.5111218383       34.2633640305       84.2299308067
H                41.5577893455       31.6834573827       83.1415471807
H                40.5925305695       32.7618725474       82.1271483083
H                42.1784629540       32.1707240817       81.5767878818
N                37.4112101288       37.5346803739       81.4600146911
C                37.2984461253       36.7995927410       82.6955063153
C                37.7889604292       37.5595456947       83.9229545634
O                37.8617656246       36.9906442118       85.0129675304
C                38.0748293936       35.4938216732       82.5483672019
C                37.5016698379       34.7302908643       81.3080983263
O                36.3302043355       34.3247854134       81.3996057431
O                38.2601822174       34.6191107622       80.3275174717
H                38.3286496190       37.5289364905       81.0266942262
H                36.2321780849       36.5750047927       82.8439900954
H                39.1313344516       35.7175035749       82.3898820535
H                37.9617241214       34.8710549514       83.4355267104
N                37.6374720378       40.9891488694       86.4134674726
C                36.7512922180       41.9718707119       87.0019480128
C                37.5652910138       42.7696624722       88.0177318441
O                38.0818471053       42.1885092670       88.9768739197
C                35.5760651782       41.2687692330       87.7117578615
C                34.8365369190       40.4176450006       86.7194446651
C                33.7389492724       40.9221332355       86.0338713075
C                35.2925487924       39.1430024303       86.4055657282
C                33.1127648189       40.1737633778       85.0525453626
C                34.6676597171       38.3947920759       85.4229222201
C                33.5789714381       38.9081126083       84.7402737863
H                38.0454391032       40.3187601149       87.0573089998
H                36.3746410425       42.5962475288       86.1905601365
H                35.9835600158       40.6631028247       88.5249604801
H                34.9280156729       42.0299554136       88.1509200632
H                33.3855720375       41.9174891835       86.2670366668
H                36.1506006558       38.7354346970       86.9231282314
H                32.2702617466       40.5899837634       84.5215642157
H                35.0543196563       37.4150430860       85.1815450045
H                33.1157084760       38.3354902512       83.9521329168
N                35.7012943053       27.0262130086       99.2881176513
C                36.5932569307       26.2758156667       98.4310370354
C                38.0261904746       26.3623174064       98.9558975749
O                38.4388766149       27.3401299168       99.5808858431
C                36.5425579253       26.8064128436       96.9946244004
C                35.1653093644       26.6455549526       96.3474763475
C                34.8344974614       25.1915178901       96.0003792971
N                35.6309278542       24.6730404662       94.9013935001
C                35.3431878233       24.8207670323       93.6110386658
N                34.2831816678       25.5222678778       93.2042570931
N                36.1350229008       24.2838728723       92.6859015911
H                35.7131364449       28.0291770809       99.1997561923
H                36.2613709457       25.2355983117       98.4942816917
H                36.7979563806       27.8672143539       97.0193954877
H                37.3053226290       26.2904935519       96.4114389661
H                34.4011847388       27.0336926016       97.0210893820
H                35.1379271900       27.2620737311       95.4502639554
H                35.0179783496       24.5549911773       96.8647723032
H                33.7735985535       25.1083194305       95.7603812280
H                36.4923189197       24.2078232620       95.1609125092
H                33.6222451978       25.8995919172       93.8640278536
H                34.0192110947       25.4602936306       92.2317906770
H                36.9286505851       23.7205980542       92.9372259400
H                35.9088178471       24.3827518100       91.7014247750
O                42.2388044917       27.8574744221       90.3793374529
H                43.0921596833       27.7090683835       90.8333310407
H                41.6907299195       28.2762650211       91.0474188157
O                31.7498852792       27.5260031478       86.2721256964
H                31.1190602539       27.5238365572       85.5451810415
H                31.2812457486       27.2463365647       87.0650388993
N                42.5595336504       17.7082703853       90.8319232255
C                41.1389142128       17.3825826249       90.7890131411
C                40.5163564427       18.1681339132       89.6225657512
O                40.6668840749       19.3720848705       89.5287014443
C                40.4815360388       17.7227065416       92.1240914140
C                40.9685127406       16.7656880018       93.2145679169
C                40.5335753504       17.2063126780       94.6120494605
C                41.1080419622       16.2478695297       95.6517801905
N                40.7794993802       16.6888473901       97.0360075276
H                42.8912013836       18.3364845347       91.5479293129
H                41.0550764867       16.3080266696       90.5923796607
H                40.7189674713       18.7568954552       92.3775002085
H                39.3996949660       17.6502184027       92.0154695270
H                40.5794107713       15.7677648857       93.0120131491
H                42.0579294904       16.7112149721       93.1846150472
H                40.9009171180       18.2172297583       94.7944237881
H                39.4446870929       17.2195827598       94.6625231683
H                40.7024285327       15.2471809342       95.4997420001
H                42.1935347637       16.1987738755       95.5500581835
H                41.1831228596       16.0407948365       97.7267564602
H                41.1627475308       17.6296802576       97.2099720717
H                39.7574206294       16.7223278118       97.1694209598
N                41.0674532654       17.2722704149       86.2971981287
C                41.8816512645       17.2070438928       85.1034435780
C                42.6712645366       15.9092883462       85.1486833662
O                42.9829746974       15.3998330683       86.2232172882
C                42.8629995268       18.4038726725       85.0651741993
C                42.1246158537       19.7074840973       85.2053259388
C                41.8714321173       20.2442593341       86.4633450196
C                41.6530300306       20.3835111482       84.0900665780
C                41.1595935867       21.4160396945       86.6124358694
C                40.9466666681       21.5656656989       84.2247411082
C                40.6864594666       22.0877505802       85.4877047014
O                39.9764761945       23.2335431343       85.6734933908
H                41.5677042356       17.1666189904       87.1738580056
H                41.2034069915       17.2456663218       84.2487003802
H                43.5703661281       18.2864294572       85.8890618664
H                43.4303461461       18.3836069995       84.1355266558
H                42.2356016832       19.7462636031       87.3501741884
H                41.8626294276       19.9980252843       83.1046121594
H                40.9615522003       21.8278808927       87.5891117820
H                40.6113372050       22.1022855536       83.3492273940
H                39.7266057531       23.6226458963       84.8238381308
H                39.4046323413       37.4542754235       89.0495650334
H                39.7091026622       35.5581857296       93.5153340566
H                44.5489974412       33.8555881515       81.7756166234
H                42.1418683682       36.1589908361       79.4719505136
H                36.8435301194       37.1901226349       80.8525450446
H                38.0520395697       38.5210521160       83.8436149913
H                37.1871318210       40.5067835998       85.8014891758
H                37.6774873555       43.7568201487       87.9040141995
H                34.8508519772       26.7811112663       99.1247989985
H                38.6637400109       25.6087721384       98.7955850118
H                43.0370379574       16.9547516317       90.9510833061
H                39.9791709937       17.6897686654       88.9278726658
H                40.6543475808       18.0709266704       86.3358229761
H                42.9434068399       15.4596762351       84.2979263408
