 355 
 
N                63.9159563252        2.2844567336       22.5241782158
C                63.8447096474        2.7436479154       23.9098305294
C                64.2340591680        1.6086110995       24.8693826135
O                64.4254143228        1.8379690425       26.0579067315
C                62.4548078247        3.3160677415       24.3523575554
C                62.4706215773        4.7697268284       24.8546408843
C                61.1834757630        5.4174143703       25.5447234320
O                60.2742773675        4.7728722193       26.0739412367
O                61.2151279911        6.6593378685       25.5436561200
H                63.0874889394        2.4951151644       21.9763311680
H                64.5895114143        3.5348211446       24.0765598267
H                61.7475943351        3.2168741502       23.5266224042
H                62.0743958807        2.7078380069       25.1746113028
H                63.2413619373        4.8769094272       25.6225943005
H                62.7115830533        5.4573630933       24.0404535048
N                64.3024944676        0.3509470618       24.3880051021
C                64.0148096334       -0.7051800059       25.3391606725
C                65.0934085313       -1.7610603575       25.5321534371
O                66.0383957211       -1.9275802025       24.7950162233
C                62.6691077955       -1.4043160891       25.0039707858
C                61.3912203169       -0.6396967543       25.3646365343
C                61.3162645605        0.4842070279       26.1456056150
C                60.0214668993       -1.0959577594       25.2316455229
N                60.0305077314        0.7390930465       26.5226667978
C                59.2229314729       -0.2277619028       26.0217633493
C                59.3882443978       -2.1662850321       24.5835576151
C                57.8927032716       -0.5059106514       26.3152039011
C                58.0413056949       -2.3750643695       24.7840482074
C                57.3032665635       -1.5897669677       25.6833281212
H                64.1247848066        0.2297035656       23.3995389723
H                63.9236214921       -0.1875872794       26.3024729433
H                62.7166863888       -1.6838664920       23.9536319711
H                62.6171417972       -2.3427186226       25.5644899462
H                62.1107173030        1.1072888940       26.5162049422
H                59.7494443195        1.5341613716       27.0703318782
H                59.9678581267       -2.8923352136       24.0469907998
H                57.3467446685        0.1122932098       27.0111052869
H                57.5541260000       -3.2067036211       24.3069456019
H                56.2738655716       -1.8382490568       25.8934326170
N                64.7957786572       -2.4881562766       26.6580560785
C                64.9304086358       -3.9248460075       26.8235694914
C                64.0984819558       -4.4889627486       28.0012202501
O                63.4329715249       -3.8059455190       28.7630117370
C                66.3839701141       -4.3854799358       27.0019306740
O                66.4105038703       -5.7528129581       26.6650275881
H                64.0783506589       -2.1043690244       27.2644763483
H                64.5629430411       -4.3986480915       25.8999449104
H                67.0257811699       -3.7937316364       26.3378957559
H                66.7066031874       -4.2093889957       28.0356754326
H                67.2814496344       -6.1356004021       26.8520473197
N                64.1992850176       -5.8204051895       28.0305922672
C                63.4806160749       -6.6578726514       28.9619845812
C                63.7326980363       -8.1736957877       28.5763969559
O                63.0869548266       -8.6341868522       27.6557936094
C                61.9986156399       -6.2794002883       28.7713312731
C                61.1316102839       -6.9053032946       29.8050576519
C                61.1483765527       -6.4202124796       31.1044580473
C                60.3506817137       -8.0063941592       29.4771174271
C                60.3955464682       -7.0516915091       32.0768465990
C                59.5937015539       -8.6329752708       30.4458046950
C                59.6245134002       -8.1567089802       31.7490728926
H                64.9472518516       -6.2396008979       27.4752472428
H                63.7937529990       -6.4618599270       29.9946616553
H                61.9153768400       -5.1985371529       28.8419243723
H                61.6996776645       -6.6020179109       27.7728897927
H                61.7220835291       -5.5350579344       31.3387659860
H                60.3500944112       -8.3640211734       28.4597048374
H                60.3698348291       -6.6626934415       33.0844389418
H                58.9718457989       -9.4775861733       30.1927479736
H                59.0136630921       -8.6275566944       32.5060151360
N                64.7246936606       -8.8272757280       29.2555685805
C                65.2938019822      -10.2410029029       29.5141544062
C                65.3587638701      -11.2672537890       28.3363105529
O                64.9391508587      -12.4041007612       28.4002173164
C                64.8053020397      -10.8219747894       30.8688918307
C                64.9707575002       -9.6727453262       31.8215466308
C                63.9950159934       -8.7397964330       32.0763505336
C                66.2356352194       -9.0518472987       32.1671179064
N                64.5515308252       -7.5614804978       32.5144199535
C                65.9211799130       -7.7187711273       32.5807532085
C                67.5818727840       -9.4805973829       32.1986345538
C                66.9351475673       -6.8272315414       32.9453729726
C                68.5688063561       -8.5908198982       32.5844291241
C                68.2470306704       -7.2730865837       32.9394575232
H                65.1658470642       -8.2360772840       29.9472837855
H                66.3528234590      -10.0043554704       29.6921084934
H                63.7651601303      -11.1405026577       30.8219507366
H                65.4305493540      -11.6742364709       31.1214156748
H                62.9320377371       -8.8297344618       31.9441955319
H                64.0268453382       -6.7651030704       32.8350988408
H                67.8241188265      -10.4999258565       31.9422541044
H                66.6822943472       -5.8194725702       33.2443715545
H                69.5963680539       -8.9102020041       32.6324171598
H                69.0242270310       -6.5877080059       33.2385656732
N                66.1143333323      -10.7565525865       27.3181748632
C                65.8433623862      -10.6717886398       25.8923772068
C                65.9381007056       -9.1307672241       25.5483447875
O                66.6306458142       -8.4363177400       26.2713949777
H                66.5685673101       -9.8714231176       27.5783367977
H                66.6502466066      -11.1870605352       25.3729883136
H                64.8631798951      -11.0977042885       25.7028749937
N                65.2680184413       -8.6179511902       24.4893505762
C                65.1720830404       -7.1663620103       24.2122857409
C                63.9352941299       -6.9031856091       23.3585065384
O                63.7765329900       -7.3558976329       22.2365996660
C                66.4620377834       -6.6259443806       23.5064407113
C                66.5195392744       -5.0885356992       23.5907450316
C                66.5959785400       -7.1167104198       22.0411859248
C                67.9540058475       -4.5487362711       23.5746690358
H                64.7553982470       -9.1765452017       23.8216941729
H                65.0979894347       -6.6659789376       25.1761604489
H                67.2912177762       -7.0141419261       24.1081474626
H                65.9513034960       -4.6431277870       22.7706206636
H                66.0497571408       -4.7495547731       24.5033354158
H                67.4444345163       -6.6143246948       21.5844019605
H                66.6787191034       -8.1970428199       22.0070139853
H                65.7224646742       -6.8244955960       21.4686982842
H                67.9322497878       -3.4748910615       23.7398932111
H                68.5498876129       -5.0056637869       24.3595524266
H                68.4313669624       -4.7222816170       22.6125782473
N                62.9608752443       -6.2219453464       23.9626166922
C                61.9086603005       -5.7791968139       23.0938031418
C                62.1698225032       -4.3161336775       22.7590566947
O                63.2734420736       -3.8257255227       22.8845321287
C                60.5216488047       -6.1083068226       23.6726342478
C                60.5503883149       -7.3256790040       24.5650970015
C                60.9157267892       -8.5687560385       23.7766417161
C                61.4447942425       -9.5686077707       24.7927269491
N                61.8037720311      -10.9330969647       24.2575705952
H                63.1278110600       -5.6803728673       24.7971774562
H                62.0404372238       -6.3190781955       22.1449340684
H                60.1384228724       -5.2582568409       24.2452896241
H                59.8355537531       -6.2868025996       22.8426969044
H                61.2598946407       -7.1645898548       25.3745922795
H                59.5653787604       -7.4428794741       25.0178846631
H                60.0386270999       -8.9536594483       23.2558000035
H                61.6750875150       -8.3448178530       23.0287419554
H                62.3256797612       -9.1569512675       25.2901345101
H                60.6885367495       -9.7172245758       25.5674078195
H                62.0710440957      -11.5305803566       25.0536126975
H                60.9757473170      -11.3457983833       23.7915351371
H                62.5525646394      -10.8599295443       23.5540433840
N                61.0248860251       -3.6695944844       22.4200400354
C                61.0011825443       -2.3148965159       21.9357599347
C                59.7227468094       -1.4397963372       22.1357643526
O                58.5754744001       -1.7167893009       21.8616175633
C                61.4016844246       -2.3879112770       20.4592087020
C                62.8861025065       -2.5746425526       20.2447352444
C                63.3862858410       -3.4222143110       19.2500742553
C                63.7753597536       -1.7524562806       20.9252990942
C                64.7276691705       -3.3960276196       18.8948238118
C                65.1262084956       -1.7605115228       20.6103422628
C                65.6255822419       -2.5454037299       19.5633204278
O                66.9603737722       -2.4771016813       19.2276854891
H                60.2327891998       -4.2357157725       22.1451105868
H                61.8038772666       -1.8034451458       22.4638866638
H                60.8646314954       -3.2217378554       20.0008618842
H                61.0948799434       -1.4803403972       19.9419697924
H                62.7192043577       -4.0710459664       18.7072411811
H                63.4493375827       -1.0620257311       21.6881903608
H                65.0890418825       -4.0134810889       18.0904169491
H                65.8017345964       -1.1265668997       21.1711884122
H                67.3942755027       -1.8228897207       19.7852382814
N                60.1406154891       -0.1838648871       22.4704243686
C                59.3386599089        0.9996421441       22.4907500727
C                59.5306186010        1.7464104533       21.1786203248
O                58.8255718879        2.7135617113       20.8709804360
H                61.0293323066       -0.0938902126       22.9422241207
H                58.2791351199        0.7265458519       22.5631574812
H                59.5774190416        1.6358014573       23.3460554119
N                60.3678370534        1.1480656870       20.3208901411
C                60.2827069134        1.2991952193       18.8572914657
C                58.8374045579        1.0863539430       18.3458338286
O                58.3777789827        1.8263138643       17.4878840178
C                61.2831359353        0.3396047311       18.2425536174
C                61.7143653069        0.7598564602       16.8615268551
C                63.0710818350        0.1646391262       16.5251771411
C                60.6510382333        0.3313530738       15.8590871017
H                61.0224246555        0.4697084516       20.6803663118
H                60.5382453493        2.3338259957       18.5961540877
H                62.1633553847        0.3103344437       18.8927367909
H                60.8582773977       -0.6637296354       18.1855491738
H                61.8138042731        1.8518971969       16.8382890274
H                63.4188433404        0.5215626478       15.5599682490
H                63.8126844163        0.4215856928       17.2769421468
H                63.0003926583       -0.9230901336       16.4823537033
H                61.0531310074        0.3872118260       14.8484567057
H                60.3176209384       -0.6774089733       16.0654548943
H                59.7996928954        1.0036585088       15.9121112004
N                58.1111851488        0.0991034970       18.9377856780
C                56.6295700269        0.0586658385       18.9653388899
C                56.0116173056        1.4313721733       19.1192120646
O                55.1608928228        1.8857555092       18.3563765464
C                55.9911259723       -0.6921318723       20.1713423683
C                54.4742197927       -0.7757320084       19.9978830169
C                53.8805948474       -1.2400411313       18.8238309911
C                53.6196164945       -0.4690515577       21.0403684078
C                52.5068274447       -1.3308232390       18.6908314793
C                52.2388128883       -0.5717487199       20.8982322991
C                51.6566845438       -0.9756129391       19.7194047212
H                58.5528907167       -0.4868820133       19.6351274982
H                56.2881359039       -0.3999212575       18.0341104139
H                56.4022664451       -1.7073153506       20.2134033563
H                56.2287317098       -0.2011318044       21.1091506487
H                54.4968283838       -1.5328435726       17.9851437206
H                54.0223704428       -0.1345037321       21.9883380952
H                52.0976265403       -1.6221718861       17.7309227774
H                51.6163242241       -0.3212093358       21.7470139603
H                50.5875572973       -1.0405719003       19.6186892218
N                58.7877288954       -6.2235851698       16.3871349035
C                59.7144343433       -5.6926487545       17.4010471377
C                59.5517728992       -6.2456897376       18.8250863482
O                60.4897759069       -6.3008708044       19.6056240346
C                59.5827677112       -4.1719982538       17.4526711423
C                60.3443125031       -3.5406535590       16.2712164380
O                61.5348015378       -3.7961233331       16.0868914987
N                59.6296542564       -2.6706124170       15.5095365453
H                57.8798910528       -5.7805719664       16.3240863963
H                60.7231346709       -5.9527009251       17.0590470509
H                58.5435846259       -3.8696628044       17.4698323817
H                60.0796943799       -3.8204958509       18.3591300039
H                60.0576014858       -2.3660583883       14.6493133882
H                58.6313752571       -2.5918531965       15.6757721522
N                58.2823533966       -6.5723316407       19.0858853647
C                57.7801424335       -7.2314423528       20.2622954663
C                57.4903621574       -8.7016972298       19.9977225814
O                58.3129129916       -9.5495415845       20.3239290668
C                56.6012986499       -6.4110654457       20.7350812677
C                57.2937264593       -5.2126797440       21.3662020654
C                55.7361046569       -7.1538200853       21.7028221072
C                56.3956442357       -4.1030364088       21.8856545841
H                57.5958196328       -6.4441208952       18.3506835728
H                58.5917544866       -7.2283327061       21.0008988700
H                56.0156041050       -6.0852353840       19.8750877996
H                57.8987963524       -5.5547036499       22.2062728489
H                57.9658067468       -4.7714158598       20.6243823483
H                54.9459728393       -6.5017704277       22.0740451707
H                55.2568431785       -8.0210311272       21.2679097042
H                56.3178999931       -7.4816778212       22.5636631569
H                56.9902489081       -3.2339163685       22.1486878729
H                55.6617363697       -3.8001858039       21.1384518631
H                55.8540224898       -4.4196872225       22.7739424983
N                60.1408557897      -11.0230820117       18.5760694540
C                61.1665314118      -11.5188709905       19.4364802184
C                60.5176780015      -12.5717930825       20.3243140075
O                61.1570633332      -13.5405239018       20.7391699441
C                61.6723863799      -10.3045208787       20.1805022094
C                61.6025799687       -9.2332086640       19.1292230781
C                60.3138627799       -9.6002728601       18.3879492099
H                61.9649400449      -12.0213158489       18.8753460312
H                60.9804969375      -10.0589753030       20.9905753386
H                62.6793671543      -10.4534786079       20.5608034007
H                61.5550783538       -8.2230186379       19.5281262424
H                62.4516817507       -9.2955945715       18.4474173657
H                59.4768030832       -9.0367651128       18.7766984499
H                60.3919116033       -9.3516101541       17.3179993277
N                59.2488759382      -12.3755107800       20.7511359726
C                58.8001046613      -13.2629359795       21.8654934500
C                58.8499630588      -14.6895774163       21.4301102205
O                59.5688860256      -15.5001134776       21.9973903914
C                57.4404965062      -12.9390955480       22.4588600104
C                57.5007783089      -11.5107618857       22.9879013667
C                56.0804274474      -11.1099820762       23.3259105854
C                58.4809730226      -11.3839525759       24.1311730770
H                58.6878261144      -11.5945810937       20.4233593655
H                59.5922660889      -13.1976688608       22.6227085557
H                56.6781423922      -13.0309790095       21.6865229229
H                57.2287835505      -13.6501057615       23.2541851713
H                57.8314627890      -10.8608917301       22.1697811632
H                56.0350713971      -10.1016204258       23.7359083170
H                55.4525162486      -11.1365472646       22.4397958398
H                55.6496616088      -11.7899293742       24.0589858724
H                58.6618296032      -10.3376051677       24.3442713635
H                58.0602771217      -11.8448957167       25.0276862672
H                59.3920281902      -11.9127160685       23.8935028810
N                62.2000432507      -16.1950818393       21.7487582736
C                62.8791367176      -16.3685140849       23.0264728176
C                62.2017185572      -17.3934466932       23.9232864549
O                62.9210594408      -17.9410534068       24.7454894723
C                63.1001246151      -15.1023050118       23.8810876912
C                64.0830949506      -14.1822103503       23.1595089603
C                64.6157417825      -13.0383317779       24.0113088365
C                65.2292682852      -11.9686853948       23.1070829268
N                66.6507971420      -12.2583062290       22.7655508409
H                61.2647861651      -15.8061399721       21.7425956946
H                63.8599680198      -16.7945293358       22.7775136653
H                62.1375020173      -14.6168745943       24.0396498993
H                63.5027747453      -15.4433971010       24.8336815660
H                64.9052546529      -14.8040004470       22.8055828792
H                63.5652208361      -13.8048773064       22.2740695680
H                63.7983412333      -12.6333078848       24.5963439608
H                65.3515016354      -13.4194353195       24.7195202448
H                64.6709326011      -11.9243119322       22.1677799449
H                65.2259307485      -10.9879077961       23.5742396956
H                67.0601609096      -11.5113149811       22.1870239268
H                67.2252143425      -12.3888984219       23.6151641448
H                66.6993957284      -13.1385583045       22.2243615366
N                74.6181208068       -4.6738105042       21.0652778935
C                73.5926220025       -3.6874151040       20.7755376634
C                73.4962074138       -2.6150381013       21.8610095477
O                72.4299539497       -2.1050941728       22.1098114784
C                72.2562926045       -4.3989850459       20.6373181571
C                71.9469269158       -5.3072651433       21.8339730994
C                71.0452020602       -6.4367209720       21.3456482479
C                70.8295445627       -7.4988194475       22.4126402796
N                69.7938879035       -8.4582825118       21.9220891521
H                74.3210721009       -5.6157897513       21.2618671901
H                73.8641811918       -3.1764170445       19.8382816358
H                71.4764857668       -3.6477034413       20.5306179205
H                72.2886522630       -4.9901094377       19.7185061651
H                72.8419899790       -5.7417474263       22.2778531725
H                71.4504877083       -4.7314032163       22.6140497909
H                70.0886820635       -6.0039242656       21.0438939688
H                71.4968395152       -6.8958318171       20.4645080553
H                71.7540864183       -8.0470454691       22.5929450463
H                70.4872395650       -7.0525564412       23.3462856776
H                69.6978398637       -9.2654257466       22.5563048371
H                68.8749377335       -7.9927322203       21.8187830765
H                70.0715778949       -8.8212235659       20.9953596997
N                60.4672265303       -4.5698085977       40.0389336778
C                59.0534993554       -4.0007002761       39.7803478521
C                58.0272484693       -3.9357383882       40.9581917054
O                56.8904014971       -4.3553513996       40.8942849419
C                58.4725274689       -4.4892002186       38.4256104276
C                59.6217569321       -4.3237447581       37.4729556275
C                60.5547058253       -5.2994862649       37.2181517247
C                60.2426549596       -3.0588670389       37.1273843519
N                61.7330217605       -4.7429714331       36.7800823048
C                61.5757311310       -3.3733223453       36.7137490498
C                59.8139048754       -1.7126294743       37.0958677045
C                62.4672707169       -2.3593546910       36.3491292857
C                60.7036823601       -0.7256959022       36.7100731342
C                62.0214156746       -1.0474715879       36.3550447351
H                61.0584249743       -4.1286551941       39.3472184728
H                59.2901467879       -2.9416787993       39.6023937649
H                58.1539996006       -5.5293421280       38.4725515217
H                57.6202657874       -3.8639529043       38.1730865835
H                60.4647677965       -6.3624645212       37.3503067264
H                62.5293991879       -5.2676569201       36.4594034175
H                58.7945764018       -1.4703834318       37.3522481539
H                63.4750296881       -2.6122079111       36.0501307038
H                60.3843002542        0.3018657956       36.6620850985
H                62.7067942524       -0.2702752273       36.0559365851
H                64.6131978372        2.6777157170       22.1128369391
H                56.2917405899        2.0240074849       19.8744036515
H                59.1566282842       -6.1410162544       15.5703756885
H                56.6326638804       -8.9713761981       19.5599704600
H                60.3686921994      -11.1746169727       17.7186735559
H                58.2890648439      -14.9977381563       20.6617156924
H                62.6799035836      -15.6412781768       21.2262302224
H                61.2253214434      -17.5821221185       23.8181662380
H                75.1743586974       -4.7445707818       20.3612946607
H                74.3149545840       -2.3371074383       22.3634113968
H                60.7255799875       -4.3636619346       40.8760460027
H                58.2939647249       -3.5288841019       41.8318804536
