 231 
 
N                35.0980000000       25.6190000000       86.3870000000
C                35.2790000000       24.7800000000       87.5500000000
C                35.0420000000       25.5530000000       88.8140000000
O                34.4540000000       25.0330000000       89.7550000000
H                34.1270000000       25.8890000000       86.2320000000
H                34.5780000000       23.9460000000       87.5130000000
H                36.2960000000       24.3880000000       87.5650000000
N                35.4840000000       26.8020000000       88.8390000000
C                35.6600000000       27.5230000000       90.1010000000
C                34.9600000000       28.8680000000       90.0420000000
O                34.7160000000       29.3800000000       88.9770000000
C                37.1670000000       27.6910000000       90.3810000000
C                38.0050000000       26.4530000000       90.0820000000
C                38.5000000000       26.2120000000       88.7910000000
C                38.2910000000       25.5230000000       91.0820000000
C                39.2580000000       25.0820000000       88.5090000000
C                39.0430000000       24.3820000000       90.8140000000
C                39.5290000000       24.1600000000       89.5280000000
O                40.2780000000       23.0290000000       89.2640000000
H                35.7280000000       27.3410000000       88.0080000000
H                35.2020000000       26.9780000000       90.9260000000
H                37.5470000000       28.5040000000       89.7620000000
H                37.3000000000       27.9320000000       91.4360000000
H                38.2880000000       26.9180000000       88.0020000000
H                37.9220000000       25.6910000000       92.0830000000
H                39.6360000000       24.9160000000       87.5110000000
H                39.2490000000       23.6720000000       91.6010000000
H                40.3750000000       22.4930000000       90.0790000000
N                34.6370000000       29.4480000000       91.1890000000
C                34.0570000000       30.7690000000       91.1630000000
C                35.0560000000       31.8860000000       90.8030000000
O                36.2640000000       31.6460000000       90.5700000000
C                33.6010000000       30.9530000000       92.6090000000
C                34.6690000000       30.2940000000       93.3680000000
C                34.9810000000       29.0580000000       92.5640000000
H                33.2230000000       30.7810000000       90.4610000000
H                33.5310000000       32.0120000000       92.8550000000
H                32.6380000000       30.4680000000       92.7700000000
H                35.5390000000       30.9480000000       93.4380000000
H                34.3160000000       30.0350000000       94.3660000000
H                36.0380000000       28.8030000000       92.6410000000
H                34.3690000000       28.2180000000       92.8930000000
N                37.4570000000       34.0660000000       91.3780000000
C                38.5120000000       33.9270000000       92.3710000000
C                39.3260000000       35.2120000000       92.4600000000
O                39.5620000000       35.8550000000       91.4430000000
C                39.4200000000       32.7720000000       91.9730000000
C                40.0780000000       32.2010000000       93.1130000000
C                41.1720000000       32.6780000000       93.7610000000
C                39.6810000000       31.0340000000       93.7900000000
N                41.4990000000       31.8660000000       94.8070000000
C                40.5960000000       30.8380000000       94.8510000000
C                38.6410000000       30.1090000000       93.5990000000
C                40.5070000000       29.7530000000       95.7240000000
C                38.5450000000       29.0330000000       94.4640000000
C                39.4810000000       28.8620000000       95.5230000000
H                37.7820000000       33.8870000000       90.4280000000
H                38.0940000000       33.7260000000       93.3580000000
H                38.8240000000       31.9940000000       91.4950000000
H                40.1820000000       33.1340000000       91.2830000000
H                41.7080000000       33.5750000000       93.4870000000
H                42.2820000000       32.0010000000       95.4470000000
H                37.9320000000       30.2350000000       92.7940000000
H                41.2170000000       29.6190000000       96.5270000000
H                37.7500000000       28.3140000000       94.3340000000
H                39.3820000000       28.0130000000       96.1830000000
N                32.2180000000       37.3020000000       98.6650000000
C                31.5330000000       36.4700000000       99.6580000000
C                32.4220000000       35.3020000000       99.9640000000
O                33.0290000000       34.7740000000       99.0540000000
C                30.2210000000       35.8890000000       99.1070000000
C                29.1350000000       36.8900000000       98.7180000000
C                28.7440000000       37.8270000000       99.8650000000
C                29.3890000000       39.2010000000       99.7210000000
N                29.3800000000       39.9580000000      100.9950000000
H                31.8930000000       37.1330000000       97.7130000000
H                31.3090000000       37.0700000000      100.5400000000
H                30.4570000000       35.3120000000       98.2130000000
H                29.7950000000       35.2370000000       99.8690000000
H                29.4970000000       37.5030000000       97.8930000000
H                28.2430000000       36.3440000000       98.4120000000
H                27.6620000000       37.9570000000       99.8700000000
H                29.0710000000       37.3940000000      100.8100000000
H                30.4250000000       39.0790000000       99.4060000000
H                28.8390000000       39.7790000000       98.9780000000
H                29.8270000000       40.8870000000      100.8600000000
H                28.4020000000       40.0980000000      101.3190000000
H                29.9050000000       39.4340000000      101.7240000000
N                32.4980000000       34.8730000000      101.2360000000
C                33.2580000000       33.6280000000      101.4920000000
C                32.6960000000       32.4060000000      100.7530000000
O                31.6710000000       32.5260000000      100.0640000000
C                33.2020000000       33.4950000000      103.0100000000
C                33.1600000000       34.9250000000      103.4770000000
C                32.2830000000       35.6420000000      102.4800000000
H                34.2950000000       33.7450000000      101.1770000000
H                32.3060000000       32.9520000000      103.3110000000
H                34.0900000000       32.9820000000      103.3790000000
H                32.7320000000       34.9750000000      104.4780000000
H                34.1670000000       35.3430000000      103.4810000000
H                31.2370000000       35.6050000000      102.7840000000
H                32.6000000000       36.6780000000      102.3570000000
N                33.3810000000       31.2610000000      100.8310000000
C                33.1960000000       30.2740000000       99.7580000000
C                33.4630000000       28.7890000000       99.9270000000
O                33.0740000000       28.0220000000       99.0570000000
C                33.9900000000       30.7200000000       98.5310000000
C                33.4350000000       30.1470000000       97.2520000000
O                33.9690000000       29.1760000000       96.7030000000
N                32.3310000000       30.7190000000       96.7880000000
H                34.0290000000       31.0030000000      101.5750000000
H                32.1080000000       30.2840000000       99.6920000000
H                33.9560000000       31.8070000000       98.4590000000
H                35.0220000000       30.3860000000       98.6330000000
H                31.9040000000       30.3790000000       95.9260000000
H                31.9100000000       31.4990000000       97.2930000000
N                34.1040000000       28.3460000000      100.9910000000
C                34.1280000000       26.9010000000      101.2790000000
C                34.9930000000       26.1240000000      100.2860000000
O                34.9150000000       24.8990000000      100.2390000000
C                32.7030000000       26.2630000000      101.2930000000
C                31.6680000000       26.8080000000      102.2910000000
C                32.1450000000       26.6780000000      103.7280000000
C                32.1750000000       25.2270000000      104.1810000000
N                32.4800000000       25.1210000000      105.6330000000
H                34.6030000000       28.9350000000      101.6580000000
H                34.5530000000       26.7860000000      102.2760000000
H                32.2740000000       26.3920000000      100.2990000000
H                32.8190000000       25.2020000000      101.5140000000
H                31.4910000000       27.8640000000      102.0850000000
H                30.7390000000       26.2470000000      102.1880000000
H                33.1540000000       27.0830000000      103.8110000000
H                31.4680000000       27.2270000000      104.3830000000
H                31.2020000000       24.7710000000      104.0000000000
H                32.9460000000       24.6910000000      103.6280000000
H                32.4950000000       24.1220000000      105.9210000000
H                33.4090000000       25.5440000000      105.8330000000
H                31.7550000000       25.6210000000      106.1860000000
N                35.8030000000       26.8360000000       99.5100000000
C                36.7000000000       26.2020000000       98.5520000000
C                38.1290000000       26.2060000000       99.0840000000
O                38.5110000000       27.0940000000       99.8470000000
C                36.6380000000       26.9180000000       97.2020000000
C                35.2690000000       26.8800000000       96.5410000000
C                34.8650000000       25.4570000000       96.1910000000
N                35.7950000000       24.8400000000       95.2500000000
C                35.7600000000       25.0260000000       93.9350000000
N                34.8380000000       25.8140000000       93.3990000000
N                36.6460000000       24.4230000000       93.1540000000
H                35.8600000000       27.8540000000       99.5230000000
H                36.4010000000       25.1650000000       98.4000000000
H                36.9060000000       27.9640000000       97.3490000000
H                37.3470000000       26.4440000000       96.5230000000
H                34.5250000000       27.2900000000       97.2240000000
H                35.2940000000       27.4660000000       95.6220000000
H                34.8500000000       24.8550000000       97.0990000000
H                33.8750000000       25.4670000000       95.7340000000
H                36.5180000000       24.2270000000       95.6260000000
H                34.1540000000       26.2780000000       93.9960000000
H                34.8130000000       25.9560000000       92.3890000000
H                37.3560000000       23.8150000000       93.5630000000
H                36.6180000000       24.5670000000       92.1450000000
N                38.9160000000       25.2130000000       98.6830000000
C                40.2950000000       25.1050000000       99.1570000000
C                41.0320000000       26.4120000000       98.8550000000
O                41.2250000000       26.7660000000       97.7090000000
C                41.0070000000       23.8930000000       98.5510000000
C                42.2320000000       23.4280000000       99.3350000000
C                42.8540000000       22.1860000000       98.6900000000
C                44.3020000000       21.9650000000       99.1190000000
N                44.4780000000       21.9360000000      100.6030000000
H                38.6340000000       24.4750000000       98.0380000000
H                40.3060000000       24.9410000000      100.2350000000
H                40.3050000000       23.0600000000       98.5110000000
H                41.3370000000       24.1500000000       97.5450000000
H                42.9790000000       24.2220000000       99.3470000000
H                41.9380000000       23.1770000000      100.3540000000
H                42.2780000000       21.3070000000       98.9810000000
H                42.8370000000       22.3010000000       97.6060000000
H                44.6470000000       21.0100000000       98.7220000000
H                44.9150000000       22.7750000000       98.7250000000
H                45.4790000000       21.7830000000      100.8400000000
H                44.1680000000       22.8390000000      101.0160000000
H                43.9130000000       21.1650000000      101.0130000000
N                41.3430000000       27.1710000000       99.8990000000
C                42.1890000000       28.3410000000       99.7690000000
C                41.5100000000       29.5920000000       99.2410000000
O                42.1900000000       30.4810000000       98.7110000000
H                41.0210000000       26.9980000000      100.8510000000
H                42.6000000000       28.5800000000      100.7500000000
H                43.0070000000       28.1010000000       99.0900000000
N                40.1910000000       29.6920000000       99.3750000000
C                39.5040000000       30.8570000000       98.8440000000
C                39.5140000000       31.9320000000       99.9170000000
O                40.1020000000       32.9880000000       99.7210000000
C                38.0990000000       30.4870000000       98.3950000000
C                37.3480000000       31.5970000000       97.7100000000
C                36.7210000000       32.5990000000       98.4410000000
C                37.2170000000       31.6060000000       96.3490000000
C                36.0060000000       33.5980000000       97.8070000000
C                36.5070000000       32.6040000000       95.6980000000
C                35.8920000000       33.6000000000       96.4270000000
H                39.5930000000       29.0030000000       99.8320000000
H                39.9950000000       31.2390000000       97.9490000000
H                38.1670000000       29.6550000000       97.6940000000
H                37.5220000000       30.1910000000       99.2710000000
H                36.7930000000       32.5970000000       99.5190000000
H                37.6760000000       30.8190000000       95.7690000000
H                35.5360000000       34.3770000000       98.3880000000
H                36.4360000000       32.6010000000       94.6200000000
H                35.3280000000       34.3730000000       95.9270000000
N                38.9330000000       31.6560000000      101.0780000000
C                38.8490000000       32.6830000000      102.1310000000
C                40.2150000000       33.1010000000      102.6830000000
O                40.2970000000       33.9450000000      103.5890000000
C                37.9210000000       32.2340000000      103.2820000000
O                38.4840000000       31.1750000000      104.0430000000
H                38.5190000000       30.7570000000      101.3230000000
H                38.3910000000       33.5670000000      101.6880000000
H                37.7480000000       33.0840000000      103.9420000000
H                36.9770000000       31.8940000000      102.8560000000
H                37.8700000000       30.9160000000      104.7620000000
O                38.2690000000       22.7140000000       96.5170000000
H                38.9220000000       23.2420000000       96.5060000000
H                37.6810000000       23.0650000000       97.0040000000
H                35.5770974270       26.3746579248       86.4841944245
H                34.7465942574       32.8354374611       90.7497403169
H                36.7968929517       33.4810353342       91.5570950155
H                39.6657766797       35.5283080337       93.3457206308
H                32.0767702059       38.1709042840       98.8522417969
H                41.0498016190       32.6930786626      102.3132616608
