 350 
 
N                 4.6385065155       34.7891385039      -18.5598852049
C                 4.9087469044       35.1302355697      -17.1237523895
C                 6.2321882847       34.4266012949      -16.7338493416
O                 6.7582148375       33.6997767047      -17.5177099917
C                 3.6904107963       34.5708713179      -16.3431467423
C                 2.5894173649       34.6078147161      -17.3812458885
C                 3.3005268273       34.1391052514      -18.6510416528
H                 4.6811811145       35.6223683859      -19.1492516813
H                 5.4151032880       34.1394514529      -18.8328544771
H                 4.9943863733       36.2084193840      -16.9935623759
H                 3.8858903569       33.5394291125      -16.0336277376
H                 3.4768185679       35.1572504888      -15.4655377828
H                 1.7619540632       33.9542275196      -17.1178308068
H                 2.2079411555       35.6200061693      -17.5027708497
H                 3.4308384630       33.0537634253      -18.6172559786
H                 2.7924897228       34.4211157860      -19.5611221607
N                 6.6695765867       34.6857438455      -15.4981028403
C                 7.7171688655       33.9284650775      -14.8729444316
C                 7.2790456445       33.6560513237      -13.4379541370
O                 6.9778747945       34.5870085409      -12.7173226794
C                 9.0187842720       34.7027414480      -14.8662001012
S                10.3717332300       33.6377908017      -14.1461611252
H                 6.1830740276       35.3309456257      -14.8845874517
H                 7.8452064448       32.9722428426      -15.4219918995
H                 9.3209598563       34.9606608216      -15.8882681248
H                 8.9595986183       35.5801920006      -14.2470683875
N                 7.2307732765       32.3748621457      -13.0875772152
C                 6.7608528721       31.9685422125      -11.7851769701
C                 7.1899411218       30.5344187145      -11.4762248758
O                 7.4984899915       29.7327055395      -12.3486207400
C                 5.2452801146       32.1459118873      -11.6851917971
C                 4.4815564948       31.4258757946      -12.7422842335
S                 2.7640958830       32.1015424326      -12.8622438324
C                 2.0373710768       31.4150972834      -11.3639490138
H                 7.4502966289       31.6261617835      -13.7363644325
H                 7.2210009468       32.6374819429      -11.0224022101
H                 4.9373640651       31.8362850730      -10.6779962146
H                 5.0448449838       33.2147914907      -11.7692310658
H                 4.9095385106       31.5715837602      -13.7293982097
H                 4.3993688526       30.3486531550      -12.5555779223
H                 0.9605012572       31.4936386956      -11.4838828996
H                 2.3102769455       30.3619579170      -11.2994840911
H                 2.3910732723       31.9712504819      -10.5176342573
N                 8.1019190364       25.2624109760      -12.4974809344
C                 8.4393921718       26.5659449338      -13.1017609574
C                 7.7454201429       26.7479031154      -14.4596348303
O                 7.5088434200       25.7926524713      -15.1873043450
C                 9.9565476269       26.6730281865      -13.3822640599
C                10.7480764688       26.9585025727      -12.1274705162
S                12.5269872750       27.0583071460      -12.4174513799
C                12.5580504879       28.4760119087      -13.5710385303
H                 7.9789016068       24.5276327791      -13.1539808707
H                 8.1339543726       27.3561705077      -12.4050518702
H                10.2923375239       25.7291719883      -13.8327738395
H                10.1111435814       27.4662484559      -14.0947514900
H                10.4247807609       27.8941163384      -11.6764269406
H                10.6136097898       26.1552305575      -11.3780095756
H                13.5627681146       28.9247824799      -13.4482741958
H                12.4442784063       28.1302542483      -14.5787977196
H                11.8117032593       29.1698911193      -13.2699272927
N                 7.5593856861       28.0211526090      -14.7731551270
C                 7.1092864621       28.5114958080      -16.0553002396
C                 7.7646680694       29.8648898110      -16.2745788380
O                 7.6323128500       30.7511727997      -15.4421266686
C                 5.5785841927       28.6898249381      -16.0773738734
H                 7.6602267029       28.7315711156      -14.0592210185
H                 7.4119697305       27.7839238356      -16.8259272293
H                 5.2558195279       29.0175343537      -17.0601810552
H                 5.1090882561       27.7354937406      -15.8516401594
H                 5.2915501352       29.4189881300      -15.3313213687
N                 8.4375424755       30.0390834586      -17.4136414459
C                 9.1001747390       31.2983375133      -17.7431561617
C                 9.4123996140       31.3247824444      -19.2253606677
O                 9.3887356192       30.2915805091      -19.8982691350
C                10.4186584939       31.4554760741      -16.9510417411
O                11.3905781323       30.5161455748      -17.3093277542
H                 8.6183304631       29.2814287931      -18.0485389565
H                 8.4246409375       32.1237200585      -17.4820174009
H                10.7789310509       32.4791395554      -17.0759309992
H                10.2068837427       31.2927088372      -15.8851289822
H                11.7743194591       30.7854289264      -18.1563787454
N                 9.6959274301       32.5165859191      -19.7232876272
C                10.3985330637       32.6661574426      -20.9971197312
C                11.8968616357       32.3668334368      -20.7517597330
O                12.2547899952       31.7971293569      -19.6978797818
C                10.1475924493       34.0619821000      -21.5646212542
O                10.7405523684       34.9998384955      -20.7220442137
H                 9.8003582196       33.3175741199      -19.1155156991
H                10.0069814164       31.8918237184      -21.6684085224
H                10.5483117205       34.1364534783      -22.5743274343
H                 9.0583581824       34.2177642233      -21.5926918320
H                10.6741420793       35.8876591808      -21.0639233163
N                12.7139204401       32.6398631309      -21.7792217867
C                14.1602668215       32.5229573695      -21.6737378551
C                14.6688203456       33.9607306527      -21.7264469305
O                14.2415694248       34.6755551411      -22.6127218890
C                14.6791920554       31.7528614065      -22.8849064407
C                16.1566342457       31.3925109575      -22.7715469215
C                17.1213510736       32.6161337308      -22.7764706627
O                18.0052715877       32.6170883342      -21.9002710394
O                16.9691810156       33.5074148470      -23.6360743832
H                12.4325275374       33.2480289046      -22.5135025515
H                14.4055543219       32.0149813676      -20.7312279706
H                14.1063181656       30.8274123949      -22.9880647217
H                14.5088258021       32.3793550242      -23.7600196371
H                16.3505397747       30.8247134779      -21.8665894694
H                16.4748214218       30.7821022494      -23.6192611164
N                15.4818578863       34.3994036026      -20.7365261415
C                16.0809361628       33.5969526204      -19.6748747062
C                15.0734373638       33.4313375384      -18.5556086479
O                14.1647717645       34.2557764460      -18.3786299027
C                17.2525632201       34.4050023437      -19.1611058443
C                17.4386330353       35.5287181144      -20.2025247988
C                16.0267978705       35.7421455623      -20.7356449075
H                16.4351179769       32.6479180368      -20.0833354221
H                17.0355551985       34.8331495457      -18.1813740619
H                18.1555725901       33.8042421071      -19.0987301739
H                17.8642423221       36.4345976687      -19.7843611535
H                18.0820430969       35.1614212134      -21.0063123647
H                15.4401828250       36.3727267907      -20.0835602582
H                16.0320192176       36.1442238424      -21.7577761285
N                15.2249566754       32.3597682945      -17.7680052651
C                14.3419516383       32.2547412882      -16.5984831887
C                14.6431980799       33.4025221776      -15.6523587283
O                15.7242896174       33.9778665406      -15.6523082921
C                14.7015191698       30.8911457623      -15.9649985224
C                15.6128252319       30.2039589702      -17.0080685559
C                16.2879698690       31.3924512746      -17.7001456613
H                13.3065899770       32.3001442658      -16.9316968506
H                15.2619227128       31.0336532690      -15.0414749925
H                13.8079652203       30.3127021447      -15.7559667008
H                16.3004752219       29.5235233422      -16.5683506142
H                14.9727948784       29.6693204400      -17.7263484108
H                17.1023315125       31.7799376874      -17.1155710116
H                16.6579584668       31.1287676301      -18.6976110406
N                13.6659815016       33.6835224549      -14.7712041442
C                13.8490129950       34.7368624110      -13.7919166358
C                14.3253361050       34.2297023707      -12.4273141196
O                14.7690930914       35.0197938529      -11.6161426729
C                12.6001765840       35.5819012618      -13.5920252271
S                11.2310958091       34.7435311448      -12.7562186315
H                12.7597789711       33.2511614859      -14.8495195566
H                14.6348866044       35.3942920829      -14.1732732731
H                12.8374834231       36.4103924809      -12.9102431052
H                12.2530766450       35.9924133882      -14.5354207334
N                14.1660572181       32.9300611215      -12.2019458310
C                14.5092644737       32.2475127630      -10.9791583811
C                15.1096428805       30.8902271496      -11.3566473631
O                15.0127541716       30.4686914610      -12.4945926584
C                13.2574488869       32.0536282044      -10.0982401200
C                12.7700087316       33.3920594281       -9.5900837716
C                12.1394481347       31.3178548275      -10.8325356568
H                13.9384478520       32.3065390138      -12.9807792372
H                15.2523571031       32.8338393633      -10.4399139153
H                13.5907385452       31.4526946827       -9.2401177663
H                11.8960736252       33.2703896644       -8.9416429195
H                13.5430295674       33.8950536454       -9.0228791773
H                12.4744094599       34.0406426050      -10.4129487178
H                11.3244573322       31.1244342296      -10.1483274112
H                11.7748572021       31.9077414183      -11.6575047792
H                12.5165012759       30.3596878368      -11.2085122029
N                17.2297686048       35.3026297760      -10.4410817859
C                18.1679452201       35.5384667679      -11.5162342849
C                17.9439303022       36.8780812079      -12.2464326435
O                18.8900521745       37.4048779964      -12.8289147707
C                18.1102251441       34.4180506705      -12.5553433641
C                18.4296283695       33.0277722090      -11.9961425213
C                18.3796474687       32.0444275992      -13.1727269544
C                19.7917674958       33.0086746439      -11.3207872079
H                16.2701470389       35.0607102589      -10.7068850958
H                19.1520395483       35.6014608318      -11.0654665878
H                17.1218459709       34.4113538024      -13.0219356302
H                18.8416276179       34.6852622313      -13.3334283533
H                17.6777924323       32.7657485269      -11.2656283671
H                18.7124579510       31.0585706026      -12.8453331914
H                17.3731391854       31.9645665641      -13.5606902614
H                19.0403756763       32.3768811302      -13.9697941278
H                20.0602183077       31.9999768437      -11.0242821002
H                20.5669697165       33.3883570627      -12.0042008059
H                19.8105972419       33.6148920531      -10.4296246318
N                16.6816745048       37.3793309200      -12.2538781857
C                16.3998801841       38.6942445629      -12.7855418994
C                15.9854917972       39.6310321835      -11.6681873707
O                15.1945077715       39.2903256307      -10.7980101513
C                15.2804666252       38.6229388637      -13.8616810264
C                15.8057867861       37.9562517887      -15.1459026707
C                14.6896649186       37.4144755638      -16.0212106801
O                13.5046105891       37.4783689506      -15.7135501023
N                15.1314127533       36.8478581283      -17.1626809639
H                15.9336894999       36.9011469940      -11.7794504313
H                17.3399263050       39.0512297250      -13.2423361620
H                14.4581843218       38.0534192628      -13.4529239449
H                14.9270228118       39.6252314057      -14.0670861801
H                16.3914365139       38.6632730731      -15.7216252780
H                16.4559394538       37.1125174646      -14.8721251171
H                16.1191645854       36.7459231986      -17.3169849889
H                14.5068153646       36.2877679346      -17.7291032012
N                22.1592109831       36.4408791396      -28.1375338560
C                21.2190909637       35.3576696151      -28.3222999119
C                21.0413090793       35.0403129617      -29.8073394823
O                20.8628073901       35.9202632178      -30.6288645659
C                19.8748262967       35.6977242304      -27.6913900863
C                18.8856150914       34.5445899193      -27.7537409844
C                17.6776768241       34.8582977119      -26.9108724193
C                16.5972369625       33.7691633893      -26.9338486814
N                15.6332333431       33.9895426646      -25.7979068272
H                21.8435363845       37.3467301038      -28.4384704377
H                21.6469979756       34.4741481967      -27.8107482120
H                20.0516941698       35.9633163210      -26.6426443094
H                19.4622301987       36.5744091216      -28.1906948045
H                18.6007088981       34.3269504173      -28.7708498138
H                19.3757723417       33.6341419506      -27.3481040650
H                18.0073438685       34.9517240206      -25.8421631443
H                17.2636799960       35.8152654290      -27.2012167351
H                16.0766256400       33.7780391315      -27.8781783618
H                17.0693183742       32.8023704814      -26.7710673122
H                14.7890655968       33.4323898422      -25.9198653381
H                16.1340991402       33.7278314440      -24.8419929335
H                15.3809309817       34.9755582405      -25.7236461615
N                23.0383831413       29.4449388199      -21.8904940673
C                21.7944771518       28.7064263181      -21.9924427974
C                21.6296668601       28.0870235794      -23.3825569163
O                22.0172382692       28.7034398531      -24.3853372650
C                20.5970310195       29.6377298229      -21.7854314872
C                20.4030997969       30.0057370835      -20.3571027215
C                20.9896372119       31.1521109807      -19.7836245987
C                19.6448757446       29.2033488279      -19.4923325938
C                20.8335894685       31.4412347876      -18.5209081240
C                19.5020960915       29.4836758933      -18.2219058659
C                20.0786109378       30.6214975569      -17.6541344203
O                19.9588538492       30.9780616530      -16.3039458059
H                23.1433615364       30.2503469487      -22.4699092601
H                21.7908314149       27.9128699150      -21.2338679363
H                20.7422225118       30.5390211290      -22.3967866966
H                19.6942729236       29.1427451010      -22.1603349141
H                21.5892963995       31.7908892892      -20.4520669372
H                19.1351406383       28.3491534568      -19.9569718807
H                21.2844600823       32.3514793084      -18.0748753505
H                18.8531992405       28.8525306685      -17.5775134097
H                19.4095169991       30.3113263128      -15.8780656467
N                18.2251654104       26.8047704002      -25.1189854768
C                16.8193538983       27.0098325820      -24.7686234259
C                16.7922785240       27.5769679077      -23.3413765326
O                17.5409979103       28.5297291685      -23.0596657928
C                16.0166884222       25.7123175447      -25.0100652505
C                16.1253327174       25.3818344039      -26.5044746908
O                16.1638048913       26.2898444607      -27.3471575413
N                16.1677492502       24.0838893270      -26.7983185556
H                18.6181806157       27.3029399652      -25.8938034347
H                16.4571495674       27.7926293541      -25.4297321835
H                16.4104795855       24.9081304569      -24.4070439098
H                14.9637001282       25.8982190899      -24.7954689941
H                16.2618451940       23.7884124253      -27.7786195682
H                16.0898740739       23.3821809364      -26.0917126820
N                15.8837504191       27.0366995552      -22.4782599120
C                15.7452648479       27.5669326153      -21.1410476519
C                16.7242578934       26.9790332582      -20.1075144968
O                16.6589942335       27.3305846539      -18.9596539780
C                14.3202814118       27.3206313895      -20.6462934514
C                13.2697266142       28.0631194576      -21.4736763702
C                11.8507861697       27.7974196354      -20.9540790847
C                10.8125292723       28.1783633940      -22.0089895654
N                 9.4447180546       28.0509056107      -21.4537128928
H                15.4671228616       26.1638515267      -22.6795632831
H                15.9648676033       28.6443652667      -21.1894832729
H                14.1325902928       26.2507377602      -20.6541101078
H                14.2791139014       27.6639275922      -19.6056176054
H                13.4840734782       29.1306940085      -21.4527378277
H                13.3596870212       27.7333995090      -22.5169196469
H                11.7676938372       26.7363979066      -20.7149732446
H                11.6948110582       28.3791603616      -20.0536119984
H                10.9802224379       29.2030967765      -22.3254286578
H                10.9197990532       27.5164938924      -22.8785401070
H                 8.7345388685       28.1601627317      -22.1965628559
H                 9.3202821999       27.1356271724      -21.0043742271
H                 9.3047112687       28.8116512163      -20.7533568497
N                17.8101105764       27.7817435168      -29.0415897560
C                18.4930100919       29.0326196607      -28.8275081570
C                19.7466568646       28.8281928256      -27.9574314847
O                19.8570951063       27.8802072231      -27.2165176643
C                17.5507673282       30.0753906978      -28.1851173276
O                17.2431894584       29.6775424700      -26.8445809842
C                16.3124657804       30.2501550909      -29.0483681771
H                17.3989702847       27.3085680742      -28.2625062983
H                18.7992179106       29.4312420410      -29.8069268299
H                18.1085572576       31.0250225030      -28.1462234165
H                16.2940691757       29.8173795647      -26.7303831491
H                15.6282412084       30.9663316080      -28.5877047725
H                16.5885570025       30.6118791262      -30.0272628135
H                15.7915276388       29.2988707288      -29.1746621918
N                22.3756186890       31.5014695768      -25.5592649510
C                22.4039624315       32.8301468724      -24.9905647431
C                23.4421547661       32.9018484394      -23.8466712258
O                23.6161005373       31.9395850609      -23.0962406690
C                21.0196799217       33.2420609741      -24.4157052872
C                20.8191127772       34.7854575618      -24.3411255212
O                21.8436777469       35.5250702850      -24.4695179706
O                19.6590760914       35.1399612951      -24.1584940745
H                22.4630280504       30.7213991790      -24.9352613210
H                22.6936372692       33.5525234240      -25.7691802050
H                20.2455951981       32.8524425300      -25.0508714995
H                20.8862759899       32.8533179913      -23.4102997485
N                24.4451082694       35.2013509591      -20.5461277345
C                23.7213886219       36.0577609315      -19.6305994593
C                24.6189589682       36.4229621556      -18.4321742094
O                25.1456030599       35.5457768077      -17.7265507352
C                22.4652599641       35.2884774287      -19.1203966396
C                21.5249002754       34.9312289134      -20.2661021965
C                21.7588094573       36.0657337912      -18.0161940135
C                20.9823669247       36.1027733416      -21.0035479995
H                24.6403320812       34.2424653258      -20.2218388530
H                23.4380725674       36.9416876011      -20.1655160171
H                22.8464906216       34.3433717037      -18.6901907797
H                22.0627340698       34.2869486592      -20.9821793497
H                20.6953457697       34.3409576733      -19.8816524050
H                20.8230814107       35.5872140311      -17.7740467728
H                22.3875445723       36.1275596598      -17.1257592610
H                21.5460329683       37.0883239057      -18.3397619853
H                20.2787169925       35.7868794309      -21.7784088238
H                20.4591657405       36.8052072223      -20.3503368848
H                21.7658694003       36.6611933111      -21.5474849527
N                -2.4513438110       35.0591510496      -12.4158239628
C                -1.8019273452       34.0707371969      -13.2671932052
C                -2.5100328299       32.6387758145      -13.1064376713
O                -3.3444008296       32.2244404398      -12.2524239716
C                -0.3285787151       33.9637212583      -12.7838396194
H                -3.0131898532       34.7802500917      -11.6307752168
H                -1.7534991298       34.6743823734      -14.2308497149
H                 0.1617883040       33.1325874204      -13.2918662915
H                 0.2134600367       34.9011005928      -12.8509761846
H                -0.3059803553       33.7610261822      -11.7175871317
H                17.1257205186       27.9069632763      -29.6124927780
H                20.4959139547       29.4892948237      -27.9969024992
H                21.5932725011       31.3737123012      -25.9854251565
H                23.9795461289       33.7341347894      -23.7106199310
H                23.9755448150       35.1119592460      -21.3087018516
H                24.7880970773       37.3828025537      -18.2083467976
H                -1.8282046880       35.5928969849      -12.0459416707
H                -2.3049001267       31.9041282729      -13.7531320070
H                 7.2272116361       30.2167850129      -10.5287441423
H                 8.7619678911       25.0096793061      -11.9402895738
H                15.5848205177       30.3443486380      -10.6665583371
H                17.5201423311       34.6183703225       -9.9336646999
H                16.3604942438       40.5571517620      -11.6272521621
H                22.3580152536       36.5203103497      -27.2633670842
H                21.0704306415       34.0918614508      -30.1229209555
H                23.1427940170       29.7426603164      -21.0476060086
H                21.2092944022       27.1850739291      -23.4814195741
H                18.7452653478       27.0347538599      -24.4214156499
H                17.4093801089       26.3087304447      -20.3926490054
