 137 
 
N                21.5143923223       12.7562644971        9.2728837786
C                20.9466523317       12.5037398696       10.5946945357
C                21.8346506178       12.9363902376       11.7532813267
O                21.3163193775       13.4765856006       12.7358948033
C                20.6068266823       10.9991060315       10.6963402530
C                19.9875750631       10.6772374378       12.0132068634
C                19.4024921508        9.2506825200       12.0078395819
O                18.9947407930        8.7510615206       10.9638022427
N                19.3373063978        8.6334693440       13.1839003380
H                21.4020663654       12.0326074570        8.5630044163
H                20.0218976708       13.0892621768       10.7110602910
H                19.9191985132       10.7524938063        9.8874220015
H                21.5273040346       10.4311472991       10.5614472245
H                20.7122145667       10.7527206005       12.8234931090
H                19.1669776436       11.3661163239       12.2307488908
H                19.7804271342        9.0251342706       14.0098423448
H                19.0921334371        7.6564898287       13.1929056289
N                20.7793418897       15.2638569720       14.9226030612
C                20.9160058573       14.8004664029       16.3220582508
C                21.7346344640       15.7524510166       17.1512417283
O                21.4716496072       15.9750640898       18.3410254281
C                21.4840762315       13.3462915884       16.3762886381
C                20.4480384930       12.4460789331       15.7280115497
C                20.9791536138       11.0207619912       15.6114184583
O                22.2101777714       10.8925792927       15.4650513784
O                20.1481866446       10.0886809225       15.5713016736
H                21.1677506414       14.7182484357       14.1636548186
H                19.9114283913       14.7894416194       16.7663702842
H                22.4274043533       13.3026074457       15.8357093753
H                21.6568161122       13.0603761322       17.4123653146
H                19.5179461064       12.4481332666       16.2989031852
H                20.2361398552       12.7811432882       14.7111549683
N                12.3314117260       12.4327960159       20.8354237616
C                13.5227036586       12.8024780669       20.0884732760
C                13.6201081316       12.0535633178       18.7684972231
O                13.9088285290       12.6680499932       17.7392447503
C                14.7704106792       12.5235913443       20.9194507295
C                16.0655584473       12.8111189094       20.2062464012
C                16.4828122600       14.1261323458       20.0033802686
C                16.9275259664       11.7919885889       19.8501715448
C                17.7809197355       14.3707354033       19.6011811838
C                18.1616252650       12.0424386133       19.2884390533
C                18.6163704409       13.3537185874       19.2078009476
H                12.4789362684       12.0271622999       21.7552130091
H                13.4599375385       13.8684210281       19.8308270265
H                14.7369511596       13.1385011584       21.8230873897
H                14.7559710301       11.4753873374       21.2197372051
H                15.8379410129       14.9476946553       20.2784119786
H                16.6202179577       10.7684665708       20.0039508675
H                18.1328446380       15.3918431282       19.5613324315
H                18.8060674184       11.2316070855       18.9873317654
H                19.6188628214       13.5596528323       18.8657226964
N                13.4345564399       10.7117183362       18.7984109314
C                13.5703795786        9.9588887820       17.5604661060
C                12.6289273919       10.4678171306       16.5042274774
O                12.9585017906       10.5234269204       15.3028725966
C                13.2903404621        8.4730273425       17.8017005561
C                14.5072348037        7.7910163632       18.4173110844
C                15.5383516517        7.3910804071       17.3527995982
C                16.9686484877        7.4550431238       17.8957317557
N                17.9330982117        7.2926940869       16.7748661305
H                13.2740486489       10.2347128889       19.6807631481
H                14.5904697228       10.0951660413       17.1754610249
H                12.4344620362        8.3990991493       18.4713458710
H                13.0296510076        7.9899017797       16.8603021442
H                14.9605618163        8.4732647492       19.1346267174
H                14.1853051526        6.9061756182       18.9651760627
H                15.3197893739        6.3843137779       16.9980070199
H                15.4655567878        8.0726522787       16.5055938018
H                17.1444698742        8.4418372869       18.3236962645
H                17.1357493828        6.6860082737       18.6482201327
H                18.8977082751        7.2083172758       17.1025180842
H                17.6969351248        6.4855863243       16.1910533187
H                17.8368717836        8.2219696664       16.2466201384
N                11.3812881110       10.7097764670       16.9192150495
C                10.3901812295       11.1672774792       15.9671456511
C                10.6462446563       12.5729516780       15.4533154754
O                10.3362418330       12.9297344442       14.3064537138
H                11.0963364654       10.5446856081       17.8835746232
H                10.3588102654       10.4989030914       15.0988700734
H                 9.4135954221       11.1519879597       16.4542102873
N                13.6343304231       13.8789791643       15.0958635294
C                14.7357261208       13.7677429876       14.1654909383
C                14.2083929881       13.2246142047       12.8353191404
O                14.5722387277       13.6507402318       11.7477334715
C                15.8451293851       12.8880737602       14.7415948062
C                16.8651861067       12.4599543810       13.6626131664
C                16.5243341367       13.6312203184       15.8857111527
H                13.6701624350       13.3843385425       15.9815775636
H                15.1356373486       14.7674329085       13.9471727581
H                15.3781567210       11.9863177979       15.1482325681
H                17.6832639891       11.9194431435       14.1291260647
H                16.4027597648       11.8251271560       12.9132560576
H                17.2761061946       13.3344791401       13.1624084204
H                17.2770236505       12.9998314366       16.3504945117
H                17.0165813287       14.5339739361       15.5286499440
H                15.8066772724       13.9012082425       16.6548182990
N                13.3106057525       12.2169416882       12.9166808179
C                12.8254969431       11.6378767301       11.6593033796
C                12.0484853841       12.6451713436       10.8432432237
O                12.1094803441       12.6725812490        9.6091283618
C                11.8531223470       10.4464356854       11.8743409428
O                12.5053434336        9.3975326825       12.5099807767
H                13.0935774254       11.7500095775       13.7922070930
H                13.6769105896       11.2969801012       11.0590244190
H                10.9666452059       10.7854786969       12.4209517275
H                11.5376023567       10.0912061703       10.8914711688
H                12.6237802819        9.6230032034       13.4493669814
O                10.0711691883        9.8080311593       19.2416877040
H                10.2389283637        9.7565315782       20.1985674785
H                 9.5813878573        9.0133157863       19.0150097118
O                15.4186554822        9.2381926972       14.4488790947
H                15.2543388392        8.9238985347       13.5581330437
H                14.6151275285        9.7103244929       14.7231205760
O                13.3991880166        9.3396948677       21.3606166898
H                14.1304697400        9.3072674956       21.9968400740
H                12.5856252740        9.2448998676       21.8614330950
O                17.5608448475        9.8113311004       16.2045111984
H                18.4661263560       10.0921241043       15.9558831417
H                16.9744507467        9.9710074276       15.4525815272
O                21.6048985247        7.2703825272       15.1575206904
H                22.0705310808        7.8528510939       14.5102419202
H                21.5921971682        7.8049102134       15.9570592124
O                19.0654581486        9.6621696344       21.7954139655
H                19.7327967125        9.6408258878       22.4973064790
H                18.5608777427        8.8490732867       21.8900576185
O                20.9412399534        4.9417357094       16.3497787799
H                20.8129532771        5.7749578730       15.8837861063
H                21.8723142371        4.7348135597       16.2021013108
H                21.1378490152       13.4936450534        8.9200593845
H                22.8217587275       12.7818950091       11.7114626196
H                19.9068548444       15.3327539375       14.7127946630
H                22.5156793355       16.2258321786       16.7439590447
H                11.8217721819       13.1625540480       20.9685430677
H                11.0800998374       13.2509236532       16.0467155787
H                13.5254778454       14.7409035918       15.3308899055
H                11.4638783961       13.3151447078       11.3008132848
