 225 
 
N                34.8351807010      -10.1547718205      -29.2836747171
C                35.0003501958       -8.6811888031      -29.0817754378
C                34.0689608880       -8.0592112701      -28.0234701311
O                34.3962709748       -7.0213783467      -27.4838531159
C                34.7650025959       -7.9408050241      -30.4131724989
C                35.2137122127       -6.4824494723      -30.3250919953
S                34.8740415501       -5.5685523379      -31.8725084082
C                33.1336064264       -5.1289169418      -31.5901697259
H                35.6360996198      -10.5191605585      -29.8259846822
H                34.8090290811      -10.6670037864      -28.3858629183
H                33.9812255600      -10.3743374706      -29.8217139244
H                36.0221582936       -8.4841809309      -28.7451947450
H                35.3335039939       -8.4167941379      -31.2131999370
H                33.7055440049       -7.9727866865      -30.6733922925
H                34.7213736203       -5.9521772323      -29.5122047906
H                36.2904509769       -6.4131728083      -30.1797498717
H                32.8264708586       -4.5189942757      -32.4330702544
H                32.5269921889       -6.0271351038      -31.5493892948
H                33.0529891971       -4.5588843546      -30.6694025474
N                32.8775900300       -8.6538374322      -27.8450649503
C                31.8601537240       -8.0692069083      -26.9904140517
C                31.7121637221       -8.8831160208      -25.6861322523
O                32.5993331751       -8.8590299480      -24.8472760261
C                30.5690897508       -7.8412974256      -27.7786435173
C                30.7193645554       -6.8186153687      -28.9184754244
C                29.4236872961       -6.7701743194      -29.7288470573
C                31.0550477184       -5.4218049424      -28.3987506211
H                32.6510041804       -9.5589477606      -28.2285312128
H                32.2747851225       -7.1088862487      -26.6621571404
H                30.2305140758       -8.7861154627      -28.2104772545
H                29.8081782702       -7.4774079276      -27.0887479480
H                31.5274528015       -7.1434443865      -29.5803347575
H                29.5347687393       -6.1003134070      -30.5779307953
H                29.1566207730       -7.7543082346      -30.1061207900
H                28.6062557042       -6.4028934173      -29.1138999620
H                31.0021898409       -4.7029202417      -29.2131314565
H                30.3461025469       -5.1164748246      -27.6335742436
H                32.0568040954       -5.3763066822      -27.9774623284
N                30.5492721914       -9.5336190194      -25.5173929635
C                30.1423738888      -10.0938326185      -24.2443911983
C                30.3093014177      -11.6231419396      -24.2167318804
O                29.5768369564      -12.3614136858      -24.8608382236
C                28.6643436466       -9.7795738251      -23.9726673006
C                28.3604631807       -8.2869436656      -23.8322580027
C                26.8600119824       -8.0565253755      -23.6175732092
C                26.5574193051       -6.5717700430      -23.4305032562
N                25.1029775073       -6.3429965331      -23.1947192729
H                29.9394352064       -9.7227461152      -26.2988648219
H                30.7876411549       -9.6475076010      -23.4822243810
H                28.0751075899      -10.2202518518      -24.7802430581
H                28.3962821728      -10.2969277142      -23.0498427659
H                28.9310440710       -7.8928135963      -22.9902833850
H                28.6876195426       -7.7619429725      -24.7299719913
H                26.3195802938       -8.4472006115      -24.4808980176
H                26.5491015297       -8.6183619288      -22.7361857462
H                27.1158167567       -6.1923147317      -22.5754670051
H                26.8563938527       -6.0169402108      -24.3201985442
H                24.9118521574       -5.3372185831      -23.0656409357
H                24.5487577884       -6.6848753132      -23.9944097104
H                24.7941820816       -6.8477346892      -22.3491609786
N                31.2999881005      -12.0562220139      -23.4282907593
C                31.4776095939      -13.4371125062      -23.0121658162
C                31.6347195282      -13.3562775158      -21.4858598929
O                30.9773495404      -12.5534587478      -20.8464582068
C                32.6063546229      -14.1167619892      -23.8000706416
C                32.1805588550      -14.3467912007      -25.2520992867
C                33.4107807208      -14.5457082501      -26.1906630522
O                33.8779180483      -13.5150741363      -26.7175614121
O                33.8310604161      -15.7091896843      -26.3365891977
H                31.8672570460      -11.3801941678      -22.9321605248
H                30.5370245820      -13.9625242175      -23.2308691898
H                33.4953626241      -13.4821082889      -23.7731051012
H                32.8508289709      -15.0909995677      -23.3747518393
H                31.5485745716      -15.2349089554      -25.3160892576
H                31.6199668745      -13.4883173994      -25.6187324017
N                32.5460718648      -14.1638463748      -20.9120319403
C                32.8049952928      -14.1025001790      -19.4879841126
C                34.1703499993      -13.4784834001      -19.1758741754
O                34.3373576904      -12.7356999796      -18.2263172318
C                32.6828653318      -15.4942980377      -18.8505533997
C                32.8010223513      -15.4277765882      -17.3528887439
C                31.8594651920      -14.7259868459      -16.6099167450
C                33.8385005395      -16.0685242078      -16.6918387971
C                31.9547302735      -14.6670919253      -15.2328109698
C                33.9326317340      -16.0149609972      -15.3123231164
C                32.9906337641      -15.3146442824      -14.5796249252
H                32.9519900453      -14.9222483409      -21.4383408075
H                32.0570775564      -13.4246137074      -19.0637281846
H                31.7041482410      -15.9003035520      -19.1187564302
H                33.4560007630      -16.1477101383      -19.2576382442
H                31.0462570671      -14.2251776493      -17.1153290304
H                34.5721755396      -16.6231208724      -17.2586479399
H                31.2165851847      -14.1182656755      -14.6664803631
H                34.7415921398      -16.5213479483      -14.8075561614
H                33.0600835439      -15.2751828412      -13.5030770089
N                35.1752577618      -13.8143043668      -20.0097755318
C                36.5193041897      -13.3118719396      -19.7931996960
C                36.6171619174      -11.8016286158      -20.0483097366
O                37.4592907594      -11.1140060712      -19.4958599153
C                37.5212852700      -14.0523199249      -20.6869323571
C                38.9599006986      -13.7714824059      -20.2533274870
C                39.9642869641      -14.3354624267      -21.2586652441
C                41.3783842699      -13.9002979423      -20.8856674368
N                42.3711052584      -14.4365992185      -21.8576088781
H                35.0250681622      -14.4430587926      -20.7838001469
H                36.7717656640      -13.4582883220      -18.7362642097
H                37.3267822877      -15.1230411760      -20.6098091349
H                37.3617748129      -13.7464683032      -21.7232966116
H                39.0881297130      -12.6958149921      -20.1330917043
H                39.1202545436      -14.2181088075      -19.2715984800
H                39.8837786530      -15.4224708708      -21.2560283117
H                39.7023929420      -13.9814215949      -22.2560356266
H                41.4435662999      -12.8120944809      -20.8741816309
H                41.6272877662      -14.2616068310      -19.8875920809
H                43.3155012838      -14.0850177580      -21.6410535007
H                42.3844353838      -15.4662962682      -21.8120216851
H                42.1253965310      -14.1683036466      -22.8232076688
N                35.8144317020      -11.3395694993      -21.0246567865
C                35.6215014904       -9.9261832914      -21.2865087878
C                34.1315726043       -9.6404997750      -21.1002749979
O                33.2898554584      -10.3635580176      -21.6168582689
C                36.0463190533       -9.5651009566      -22.7200777724
C                36.3024606429       -8.0682372048      -22.8665352415
C                37.5249514529       -7.5950248118      -22.0314034492
O                38.6069099688       -8.2015361866      -22.2296293646
O                37.3596628502       -6.6547198052      -21.2422032143
H                35.0686040655      -11.9263342723      -21.3748670207
H                36.2272422454       -9.3637564549      -20.5684792765
H                36.9658815948      -10.1036019460      -22.9521978828
H                35.2638045856       -9.8773310796      -23.4156232735
H                36.5077279086       -7.8307983278      -23.9126545158
H                35.4328043070       -7.4828904911      -22.5642374112
N                33.8389234484       -8.5882447441      -20.3269350256
C                32.4784672163       -8.1773243365      -20.0498960215
C                31.9809956845       -7.1851003725      -21.1148452270
O                30.9181537015       -7.3530482478      -21.6822766815
C                32.3635707451       -7.5900585578      -18.6331686895
C                32.4547523842       -8.6592417847      -17.5729508062
C                33.6687488937       -8.9731091967      -16.9755641730
C                31.3181349099       -9.3535971935      -17.1744038561
C                33.7486528199       -9.9641168312      -16.0124184866
C                31.3964162291      -10.3451655452      -16.2124622309
C                32.6137307571      -10.6577577999      -15.6321267940
H                34.5877466592       -8.0224270404      -19.9552741257
H                31.8487010960       -9.0707796821      -20.1442328685
H                33.1605757495       -6.8566723409      -18.4914474669
H                31.4038418734       -7.0782688713      -18.5522583029
H                34.5624809909       -8.4322255542      -17.2544745948
H                30.3631759989       -9.1113728673      -17.6169622894
H                34.6997597621      -10.1945502048      -15.5567145875
H                30.5044858006      -10.8741097210      -15.9102921985
H                32.6792529972      -11.4365262035      -14.8871139051
N                32.7763157637       -6.1244597743      -21.3333411808
C                32.4779081937       -5.1245202389      -22.3598081062
C                33.7017696339       -4.1953950347      -22.4374062029
O                34.6660276988       -4.4742232528      -23.1289708976
C                31.1525919627       -4.4281505597      -22.0556755493
H                33.6787653513       -6.0663482373      -20.8879776060
H                32.4082032312       -5.6412050166      -23.3265634664
H                31.0073293557       -3.5909580270      -22.7308389740
H                30.3522433123       -5.1481999375      -22.1969540519
H                31.1167554740       -4.0903106270      -21.0225417611
N                33.6102929997       -3.0909219737      -21.6852857617
C                34.6776993171       -2.1543664946      -21.4363519657
C                35.0130294140       -2.2755181139      -19.9490700707
O                34.2755110082       -2.8813441192      -19.1799650476
C                34.2294141360       -0.7177895670      -21.7672319670
C                33.4705023506       -0.6111486609      -23.0978941478
C                32.8730052943        0.7880530236      -23.2395703316
C                34.3737190318       -0.9421476591      -24.2828378764
H                32.8057892596       -2.9647995889      -21.0905286110
H                35.5357506538       -2.4403038519      -22.0503923957
H                33.5817327255       -0.3588058282      -20.9629686911
H                35.1085573205       -0.0739995524      -21.8097063357
H                32.6428941753       -1.3285609419      -23.0927724457
H                32.2932815721        0.8568409681      -24.1566653724
H                32.2137643203        1.0123276126      -22.4036595009
H                33.6578578845        1.5396124158      -23.2726362713
H                33.8249360305       -0.8338624506      -25.2155870992
H                35.2363801109       -0.2801132304      -24.3142452115
H                34.7320695127       -1.9670983756      -24.2259359397
N                41.1289056915       -1.8150704439      -27.3834981296
C                40.8677604119       -3.0091995419      -26.6025544593
C                40.8283866223       -4.2447606732      -27.5243883626
O                39.7823682119       -4.7613532768      -27.8897315073
C                39.5643040467       -2.9101469467      -25.8143237081
C                39.6462039232       -1.8457139255      -24.7356967050
S                38.1708892495       -1.7887363554      -23.6774204772
C                38.5935791789       -3.1901640193      -22.5899200020
H                40.3399558651       -1.3228914547      -27.7791050424
H                41.7135371508       -3.1168764684      -25.9112551204
H                38.7385485623       -2.6964147065      -26.4966208316
H                39.3707216942       -3.8885666383      -25.3674904070
H                40.5050854645       -2.0124218171      -24.0857986732
H                39.7316421451       -0.8552855726      -25.1728795960
H                37.7870615877       -3.3155528180      -21.8774853640
H                38.6859446739       -4.1003065296      -23.1730308149
H                39.5233855935       -2.9536089479      -22.0847980094
N                41.6122871382       -8.2674016879      -28.0170156249
C                41.6854346260       -9.4989438577      -27.2527194535
C                42.5611735719      -10.4668279306      -28.0608013656
O                42.3287549873      -10.6439732471      -29.2594825126
C                40.2790147474      -10.0729974407      -27.0229683933
C                40.1933385074      -11.0274732886      -25.8343619396
C                40.3284950752      -10.3019615745      -24.4939548273
C                39.9654436473      -11.2200436403      -23.3270925620
N                39.9997719883      -10.4579127579      -22.0583081024
H                41.4147627909       -8.3891001074      -28.9992572265
H                42.1652430019       -9.2460781213      -26.3038502607
H                39.6008102437       -9.2326814835      -26.8588741940
H                39.9742043708      -10.5919423236      -27.9339458944
H                39.2196149695      -11.5189579222      -25.8744337813
H                40.9589005798      -11.8011788161      -25.9282008094
H                41.3506225260       -9.9495008904      -24.3672959819
H                39.6718580559       -9.4308937282      -24.4774818130
H                38.9624003133      -11.6259139931      -23.4804425377
H                40.6727292650      -12.0486885154      -23.2791356268
H                39.7737563411      -11.0489903831      -21.2539996362
H                40.9331563665      -10.0584759200      -21.9285311504
H                39.3349591625       -9.6102949795      -22.1006633482
H                35.8463697052       -1.8564194413      -19.5886532819
H                41.5492182800       -1.2066036545      -26.8705600299
H                41.6812572772       -4.6550085513      -27.8473563558
H                40.9586814288       -7.7457398948      -27.6843467953
H                43.3151331236      -10.9496251806      -27.6153220622
