 443 
 
N                26.0651382831        4.6549006889       30.6239789355
C                26.9600286292        4.5691693799       31.7567772245
C                26.2760564122        5.1471396309       33.0078340430
O                26.3353996499        4.5828866929       34.0928698333
C                28.2564177669        5.3132130015       31.4624796662
H                26.4317493728        4.9670091367       29.7317544301
H                27.1669400397        3.5142233502       31.9841241868
H                28.9320627191        5.2307104988       32.3078971749
H                28.7320391279        4.8821640600       30.5844934804
H                28.0396373078        6.3623009813       31.2750501896
N                25.6723212847        6.3307327450       32.8523055359
C                25.0978236682        6.9659448118       34.0155009982
C                23.7855827185        6.2836414195       34.4023585745
O                23.4861006836        6.0919066987       35.5797241301
C                24.9470461206        8.4930752823       33.8916485383
C                26.3026099021        9.1357950238       33.5927155780
C                23.9093891203        8.8846682179       32.8482627080
H                25.6698561035        6.8011599651       31.9565804427
H                25.7844018687        6.7650134611       34.8512757630
H                24.6019840217        8.8377871278       34.8725006245
H                26.2364601222       10.2132515440       33.7103735067
H                27.0623000347        8.7701071166       34.2768347952
H                26.6124048127        8.9077195278       32.5757939329
H                23.8325928405        9.9675299250       32.7999756854
H                24.1926399811        8.5095018413       31.8689689746
H                22.9359295941        8.4742801691       33.1020696182
N                23.0191120432        5.9027700574       33.3867220512
C                21.7706567392        5.2215006220       33.6250741534
C                21.9500344408        3.9346243469       34.4224945921
O                21.0964682095        3.5400983459       35.2078076511
H                23.2697954314        6.1099534003       32.4262123776
H                21.0822454906        5.8582621147       34.1920662932
H                21.3088487475        4.9934677536       32.6643169848
N                23.0891523371        3.2712813259       34.1932611606
C                23.3795067648        2.0624484091       34.9219209727
C                23.8966485942        2.3910070464       36.3261711953
O                23.5067402480        1.7355362835       37.2899485881
C                24.3311283288        1.1288441538       34.1661154979
O                25.6550925932        1.5865041506       34.2962400802
H                23.7210189857        3.5495534756       33.4513307695
H                22.4353126328        1.5234481200       35.0808186524
H                24.2253870773        0.1224593184       34.5954661345
H                24.0299082067        1.1106829038       33.1093608738
H                26.2557539818        0.9442110580       33.9023998301
N                24.7152705216        3.4342434592       36.4526723810
C                25.1150481428        3.8295246126       37.7946520672
C                23.8803115468        4.1482542810       38.6509654704
O                23.8113385612        3.7507961877       39.8099510536
C                26.0811650244        5.0099740795       37.7820653819
C                27.4945257381        4.5503726332       37.4311277392
C                28.4811129543        5.7154792571       37.4916136399
C                29.9337297126        5.2605607181       37.4086034701
N                30.3807646323        4.6665166457       38.7032567901
H                25.1741182279        3.8546460571       35.6500909516
H                25.5848292596        2.9661874451       38.2876666534
H                25.7156461522        5.7517826208       37.0718337156
H                26.0726797471        5.4618776354       38.7758190606
H                27.7683698938        3.7663286432       38.1380433688
H                27.4910147184        4.1184758999       36.4296021902
H                28.2811561249        6.3840921627       36.6556124170
H                28.3205131245        6.2884610723       38.4059837731
H                30.0432087291        4.5153619087       36.6205384003
H                30.5760802888        6.1118716036       37.1836006984
H                31.3658069143        4.3710983598       38.6471624620
H                30.2826330949        5.3590649685       39.4612310758
H                29.8024454227        3.8458444248       38.9362055510
N                22.9157643780        4.8672632021       38.0737380308
C                21.6996429817        5.1591348197       38.8115139547
C                21.0591937046        3.8544317554       39.2760425721
O                20.6659077204        3.7152065991       40.4317217949
C                20.6816529430        5.9487401760       37.9896161024
C                21.0902933794        7.3938273731       37.6772912257
C                19.9652211145        8.0645009736       36.8904912611
C                21.3800582528        8.1844888637       38.9486011189
H                23.0280487981        5.2478947525       37.1390575256
H                21.9450154207        5.7075648423       39.7292139134
H                20.4955413997        5.4084101033       37.0579448657
H                19.7501455270        5.9641166582       38.5619881200
H                21.9908054278        7.3750853101       37.0552944472
H                20.2578608539        9.0643645683       36.5814798858
H                19.7111438582        7.4861861725       36.0053245424
H                19.0738533846        8.1443676716       37.5094124685
H                21.4221697332        9.2481148459       38.7290448448
H                20.5964161048        8.0178355811       39.6860989783
H                22.3306475072        7.8942946677       39.3873493750
N                20.9725891330        2.8708048675       38.3744456411
C                20.4144130743        1.5959747027       38.7753846567
C                21.1464423740        1.0417888686       40.0026760005
O                20.5360585457        0.4770111446       40.9078023580
C                20.5390173697        0.5245642461       37.6968740759
C                19.6731757971        0.7231926937       36.4547674502
C                19.6971504724       -0.6123226810       35.7051333371
C                19.3613788201       -0.5567120570       34.2204620074
N                19.5674713162       -1.9228530687       33.6692296305
H                21.1756259777        3.0264990474       37.3950677104
H                19.3640131342        1.7243825766       39.0737018149
H                21.5897274268        0.4535486672       37.4092577662
H                20.2405242028       -0.4125192650       38.1723551802
H                18.6560175488        0.9845315005       36.7455134733
H                20.0649246881        1.5345657995       35.8424031009
H                20.7063218679       -1.0209672707       35.7939513835
H                19.0091326108       -1.2882665012       36.2123712700
H                18.3306531617       -0.2420704840       34.0576505386
H                20.0299289091        0.1379599461       33.7129005090
H                19.5256781030       -1.9261682512       32.6435870059
H                20.5153376902       -2.3166383329       33.9640057203
H                18.8453636716       -2.5573377039       34.0285227863
N                22.4823764186        1.0913766377       39.9737221476
C                23.2388575388        0.5695671465       41.0969992047
C                22.8741044459        1.2956302387       42.3974570614
O                22.7106878434        0.6690469671       43.4373504965
C                24.7457585900        0.6859690539       40.8792488419
C                25.3248782563       -0.3784944151       39.9468964074
S                26.0202964119       -1.8419870770       40.8087384654
C                24.5253744591       -2.6506003669       41.4288317022
H                22.9669186186        1.5247831863       39.1940990657
H                22.9373924782       -0.4725595488       41.2546912334
H                24.9299226257        1.6837789814       40.4767594553
H                25.2433055938        0.6170120145       41.8478803399
H                24.5955107662       -0.7189781557       39.2137555040
H                26.1885112047        0.0152718470       39.4154209050
H                24.8100810176       -3.6629018135       41.6966502878
H                24.1382944769       -2.1289920762       42.2998597395
H                23.8043895512       -2.6728669430       40.6200787982
N                22.8328676150        2.6260466260       42.3314626529
C                22.3912551971        3.3950944665       43.4720730898
C                21.0501803116        2.8703610701       44.0050689224
O                20.8802625731        2.6930838661       45.2124987013
C                22.3010732948        4.8748255903       43.1195592132
C                23.6598531263        5.4863115572       42.7458046811
C                23.4644869976        6.9722691197       42.4515870890
C                24.6894606881        5.3074978580       43.8596313537
H                22.9094694768        3.0962708505       41.4353259940
H                23.1018872084        3.2453914712       44.2959373781
H                21.5943936816        4.9912415440       42.2948270946
H                21.8832661720        5.4098449795       43.9762244689
H                24.0180947076        4.9909767480       41.8388287950
H                24.3760480396        7.4124169055       42.0570953313
H                22.6612117815        7.1164614324       41.7326874471
H                23.1877589073        7.4980442224       43.3632150923
H                25.5642516741        5.9179060914       43.6538418228
H                24.2656389869        5.6205746625       44.8123243466
H                25.0041822935        4.2718880609       43.9403570426
N                20.1339456830        2.5817679256       43.0780088866
C                18.8157670613        2.0983160043       43.4460732865
C                18.9377428954        0.7609174954       44.1822232363
O                18.3597448139        0.5374314004       45.2447615624
C                17.9370142342        1.9839335381       42.2090762392
C                16.5573790347        1.4241366693       42.5408243232
C                16.5265527007       -0.1389836677       42.4309778957
O                16.9548674922       -0.6261382054       41.3667213994
O                16.0603241857       -0.7715250906       43.4005902236
H                20.2819206664        2.8643247425       42.1149226377
H                18.3598160996        2.7938269014       44.1704986597
H                17.8545508627        2.9773472417       41.7594371297
H                18.4157132277        1.3124682460       41.4904052827
H                16.2449734434        1.7091867316       43.5481194851
H                15.8170298970        1.7974481486       41.8290088448
N                19.8013437540       -0.1055078603       43.6518144103
C                20.0079403120       -1.4040917990       44.2525333554
C                20.7153180219       -1.3243215825       45.6122194090
O                20.6902811104       -2.2825577331       46.3848854176
C                20.8342583300       -2.2805187884       43.3193543448
C                20.0333518237       -2.6900393380       42.0852844989
C                20.9064855711       -3.5332598518       41.1432778860
N                21.0810086565       -2.9779681162       39.8132773708
C                20.3593819032       -3.3698730313       38.7560090838
N                19.2272014116       -4.0296502039       38.9381312592
N                20.7826621757       -3.1012461949       37.5197861183
H                20.1695205897        0.0712509009       42.7229753080
H                19.0264584046       -1.8634601738       44.4448911329
H                21.7172500096       -1.7042277366       43.0384773783
H                21.1411715196       -3.1704471268       43.8702892164
H                19.1494040932       -3.2391116230       42.4078346705
H                19.6751324362       -1.7974782562       41.5693732601
H                21.8982065340       -3.6217210379       41.5912042197
H                20.5065721722       -4.5422495825       41.0376169035
H                21.7685654088       -2.2533809368       39.6792277165
H                18.7889714387       -4.0461868097       39.8431780212
H                18.7970791825       -4.5688932257       38.1856290176
H                21.7346515435       -2.8093999814       37.3006197592
H                20.2780642074       -3.5103661274       36.7490352102
N                21.4101107834       -0.2201654970       45.8688232019
C                22.0698773470        0.0072060951       47.1281740482
C                21.2116619046        0.8200172966       48.1030806213
O                21.6553256502        1.1777736854       49.1847320268
C                23.4502676322        0.6393925295       46.9239716796
C                24.3589391676       -0.2980744050       46.1315887400
C                25.8210945690        0.1478432982       46.0774682990
C                26.6261232643       -0.9110934492       45.3212991000
N                28.0785936334       -0.6489742263       45.2685565789
H                21.4304316831        0.5262130442       45.1865202794
H                22.1845843966       -0.9786775949       47.6000432730
H                23.3151522246        1.5769980391       46.3833609906
H                23.8608531217        0.8514785082       47.9110532878
H                24.3133795011       -1.2864393272       46.5907124378
H                23.9596900478       -0.3774249328       45.1201529239
H                25.8910323556        1.1127921673       45.5760196714
H                26.2010961952        0.2492881788       47.0944858105
H                26.4870609517       -1.8839441445       45.7942387563
H                26.2650184819       -0.9825380907       44.2939247801
H                28.5269436449       -1.4336142640       44.5525837767
H                28.2716963991        0.2856250402       44.9039688708
H                28.5046962037       -0.7594781867       46.1897270817
N                19.9353032680        1.0183769572       47.7443262801
C                19.0076646394        1.6465289537       48.6444007776
C                18.9030488688        3.1681635201       48.5711832501
O                18.0594971111        3.7350052240       49.2675421118
H                19.6023511320        0.8093808770       46.8125685822
H                18.0072171788        1.2451131318       48.4675718789
H                19.3215599199        1.3979908443       49.6646894472
N                19.8175591842        3.8053624441       47.8474879830
C                19.6867177417        5.2154682807       47.5747969293
C                18.5744477997        5.4629845372       46.5093802250
O                18.0260738780        4.4790853506       45.9816409836
C                20.9918936093        5.7797930029       46.9992949397
C                22.1895688396        5.5059176588       47.8403485289
C                23.0385366164        4.4461091608       47.6968073216
C                22.6814991583        6.2712925913       48.9428092219
N                24.0455846741        4.5107607859       48.6167459850
C                23.8457291296        5.6047378569       49.4082566861
C                22.2489941134        7.4329982840       49.5879108546
C                24.5758496455        6.0837794362       50.4908515066
C                22.9881324452        7.9069595169       50.6491060522
C                24.1367076871        7.2418827268       51.0926659933
O                18.3636314768        6.6692241941       46.2312882786
H                20.2878047518        3.2761263402       47.1217443857
H                19.4057826681        5.7282491958       48.5002228225
H                21.1246705214        5.3176570433       46.0153724106
H                20.8405756454        6.8513542187       46.8537575274
H                22.9811673895        3.6516919568       46.9793239660
H                24.7577588177        3.8132888360       48.7498591717
H                21.3501661597        7.9318033481       49.2558763503
H                25.4588762002        5.5716932343       50.8403568532
H                22.6658143639        8.7882480872       51.1860703303
H                24.6806003833        7.6485941403       51.9341250399
O                19.2008145647        7.1288240108       42.0921262566
H                19.2891042204        8.0364017367       42.3964858207
H                18.5112461978        6.7496031168       42.6657519477
O                17.3184355813        6.2990566010       43.8785458421
H                17.6673630162        6.5933982434       44.7614236403
H                17.1427297713        5.3646785650       44.0168041260
O                18.7109050272       -5.9956156898       37.1584322841
H                18.7301757452       -6.1153387647       36.1942756101
H                19.2677705498       -6.6873924623       37.5266697975
O                24.8158176314       -4.0320064886       49.3884853549
H                24.3822445273       -4.3321890283       48.5731356192
H                24.2248502200       -4.2760093894       50.1068967186
O                23.3828206465       -5.9279254497       44.7713285821
H                24.2011952808       -5.5230599289       44.4793845959
H                23.2564745283       -5.6166909132       45.6812620262
N                18.4629311913        2.6456389481       54.1984489450
C                18.1051045181        3.0254906316       52.8220566926
C                17.6602615166        4.5035833733       52.8529729720
O                17.2807588107        4.9886126475       53.9140018644
H                18.1138752346        1.6894238189       54.5812907298
H                19.4716893991        2.7066346653       54.3669507188
H                17.9987595884        3.3657209191       54.7966654851
H                18.9303323299        2.8870382335       52.1270105834
H                17.2508335505        2.4390790214       52.4772144644
N                17.7308333381        5.1531565990       51.6959872026
C                17.2711976081        6.5125231564       51.5633913158
C                18.3611551902        7.5535451389       51.8486748210
O                19.3720439814        7.2932534006       52.4810011611
H                17.9624852122        4.6587442451       50.8335555255
H                16.8718617578        6.6587134427       50.5591909575
H                16.4821195406        6.6938542083       52.3049000048
N                18.1069386395        8.7565970900       51.3093408741
C                18.8289413688        9.9541932439       51.6737381496
C                18.2757899740       10.4671218649       53.0180171776
O                17.2300508555       10.0373513823       53.4803881883
C                18.6237038477       11.0640829762       50.6314322591
C                19.4199097815       10.9606687753       49.3687127033
C                20.7246451175       10.5982549170       49.1906454859
C                18.9416339221       11.3925762314       48.0852512263
N                21.0867550136       10.7543603441       47.8766594929
C                20.0198068579       11.2393502322       47.1761122511
C                17.7328712487       11.9298638569       47.6348263595
C                19.8962364087       11.6000752359       45.8406558433
C                17.6214318252       12.2832000717       46.3091074241
C                18.6873819163       12.1154591287       45.4209329390
H                17.1970720563        8.9126777254       50.9001035834
H                19.8848110899        9.6945218205       51.7923447643
H                17.5616655364       11.1025915436       50.3774698173
H                18.8600713153       12.0218095927       51.1066731901
H                21.4403710915       10.2472439667       49.9062908101
H                21.9894774546       10.5248701557       47.4950894847
H                16.9087023304       12.0839350434       48.3164849651
H                20.7218329699       11.4775465403       45.1557664752
H                16.6962206176       12.7056435575       45.9460187999
H                18.5606395745       12.4054268057       44.3886269500
N                27.8900955768       11.3027703016       51.3093408741
C                26.4919455195       11.3292449298       51.6737381496
C                26.3243120008       10.5937374593       53.0180171776
O                27.2193737157        9.9029860582       53.4803881883
C                25.6333715765       10.5965591566       50.6314322591
C                25.3248279346       11.3378008223       49.3687127033
C                24.9863198746       12.6489416977       49.1906454859
C                25.1899230352       10.7076480500       48.0852512263
N                24.6700736610       12.8844853531       47.8766594929
C                24.7835341752       11.7179862017       47.1761122511
C                25.3289996391        9.3921850549       47.6348263595
C                24.5329223828       11.4306085517       45.8406558433
C                25.0787212127        9.1190075758       46.3091074241
C                24.6910140851       10.1260179054       45.4209329390
H                28.2098590731       10.4367624087       50.9001035834
H                26.1888927082       12.3734906431       51.7923447643
H                26.1310413344        9.6575527155       50.3774698173
H                24.6857722629       10.3223960799       51.1066731901
H                24.9324412875       13.4442840484       49.9062908101
H                24.4174567736       13.7810110138       47.4950894847
H                25.6076545368        8.6013982415       48.3164849651
H                24.2262370652       12.2068604948       45.1557664752
H                25.1754800262        8.1065294233       45.9460187999
H                24.5032658815        9.8712719791       44.3886269500
N                25.1142066939       10.7570665877       53.5719748073
C                24.6825484032       10.0844096886       54.7740841188
C                23.4835859604        9.1991242062       54.4339484707
O                22.5267380396        9.6104352410       53.7884068533
C                24.3109888530       11.1063348019       55.8642665818
C                23.9645656883       10.3786442646       57.1630510288
C                25.4762821559       12.0674772033       56.0780711907
H                24.4352827945       11.3619942405       53.1336701946
H                25.5132746282        9.4620325574       55.1207892655
H                23.4348185203       11.6656311727       55.5170726665
H                23.7407948435       11.0899054573       57.9529451573
H                23.1087908951        9.7219743936       57.0238715525
H                24.8040328994        9.7666966335       57.4886331520
H                25.2322263016       12.7773015018       56.8616678701
H                26.3586258664       11.5069546133       56.3784212991
H                25.7011817145       12.6223359275       55.1701000658
N                23.5932652195        7.9422363959       54.8696519182
C                22.5517272196        6.9769014747       54.6383548836
C                21.4064250615        7.1239786728       55.6537653009
O                21.6138360515        7.3244676853       56.8454085591
C                23.1489983469        5.5748367217       54.8914343253
O                22.1641461027        4.5674704681       54.9076408201
H                24.3705789400        7.6908936739       55.4894994472
H                22.1728257827        7.0972465967       53.6179600009
H                23.9232476117        5.3732181217       54.1483718308
H                23.6269235304        5.5829949475       55.8749802211
H                22.0041343016        4.3000948093       53.9901245617
N                17.3471907797       -6.8827619118       51.4261771351
C                17.7475757494       -6.1911665617       50.2253478058
C                18.3048804007       -7.1954038431       49.2148600230
O                18.0305145923       -7.1138525579       48.0135126197
C                18.7661591260       -5.0996802259       50.5622363062
C                19.1743459625       -4.2891925936       49.3302770121
C                18.0225723961       -3.5123338092       48.7156882411
O                16.9220459816       -3.3918643524       49.2519751359
N                18.2914957830       -2.9448743018       47.5391816195
H                17.7619660889       -6.5971684773       52.3096575335
H                16.8642690681       -5.7386364035       49.7558730652
H                18.3056015593       -4.4353887374       51.2941734176
H                19.6542642216       -5.5615328572       50.9927208664
H                19.9554455546       -3.5788097955       49.6018697360
H                19.5744242802       -4.9463430230       48.5586247710
H                19.2179307929       -2.9519167312       47.1225637281
H                17.5669721292       -2.4203443424       47.0751659052
N                26.7001383857       -8.0697472561       43.3999822905
C                27.0441070696       -6.8147048848       42.7647340008
C                27.7235506254       -7.0560612213       41.4080292750
O                27.4208099079       -6.4199922539       40.4059924897
C                27.9555162629       -6.0149479208       43.6856301541
C                28.4191011956       -4.7153688016       43.0481913435
C                28.6983695957       -3.6241919542       44.0873258187
O                28.7590932116       -3.8984497881       45.2914640130
O                28.8166394757       -2.4562281800       43.5996259610
H                27.0263315701       -8.2088980480       44.3485702090
H                26.1283211447       -6.2443571290       42.5502944686
H                27.4241683932       -5.7903831971       44.6131503257
H                28.8217507352       -6.6172139779       43.9594722731
H                29.3355583409       -4.8601510066       42.4735506136
H                27.6686656628       -4.3118152349       42.3638850128
N                25.1552568919       -8.4156420807       38.8789016261
C                24.3276458273       -7.3280389473       38.4097315804
C                25.0726664879       -6.5091186097       37.3533555997
O                24.5588446758       -6.1641469363       36.2967987666
C                23.8964043870       -6.4403382662       39.5824266267
C                23.4036063970       -5.0945851775       39.0673647445
C                22.7918157359       -7.1373296446       40.3757662367
H                25.2835010214       -8.5231055308       39.8813323041
H                23.4394672264       -7.7369961978       37.9056353331
H                24.7716518482       -6.2876617234       40.2215033878
H                22.9482223854       -4.5522235065       39.8827640745
H                24.2140632815       -4.5016399452       38.6481691857
H                22.6704597616       -5.2391482446       38.2769981862
H                22.5416203889       -6.5563150137       41.2587680740
H                21.9044019842       -7.2452624625       39.7619251644
H                23.1259680236       -8.1148989905       40.7068180612
N                26.3286787293       -6.1975435243       37.6839948449
C                27.0907501110       -5.2639257433       36.8960952959
C                27.1976117290       -5.7760384114       35.4520960595
O                27.0309740319       -5.0608030110       34.4685099614
C                28.4492073281       -5.1299164518       37.5805764125
O                29.1771063073       -4.0966613600       36.9891905369
H                26.6632548015       -6.3617434593       38.6285416508
H                26.6022714284       -4.2788191544       36.8570233838
H                28.2597297919       -4.9216174600       38.6424415840
H                28.9829313712       -6.0887837899       37.4997826704
H                29.9293649432       -3.8669632013       37.5482483294
N                24.1723257850       -5.6077327688       33.4670592355
C                23.9784847619       -4.2996989479       32.8794307848
C                24.8340868293       -4.1512120510       31.6172793181
O                24.4000362442       -3.6017051995       30.6093406847
C                24.2846887886       -3.1939703467       33.8808410299
C                23.0861539932       -2.9339768992       34.8545282207
O                21.9395299976       -3.1009728798       34.3775432769
O                23.3590300727       -2.5358119742       35.9951620419
H                24.4900077872       -5.6700737541       34.4249734041
H                22.9281128469       -4.2009647090       32.5636812281
H                25.1790639989       -3.4262615515       34.4590150038
H                24.4523677120       -2.2555149033       33.3455704925
N                16.8897155345       -7.6687232372       45.3823689644
C                17.6883314558       -7.5297135652       44.1777202246
C                17.8282576325       -8.8645982712       43.4474033952
O                17.7551335748       -8.9045452543       42.2247275831
C                19.0695252957       -6.9131660708       44.4741944333
C                19.9488087955       -6.9528229769       43.2236424250
C                18.9099999392       -5.4764834746       44.9713071099
H                17.3417280834       -7.5716205152       46.2857015762
H                17.1398483052       -6.8749828680       43.4875013869
H                19.5321228494       -7.5143024201       45.2626406076
H                20.9125402225       -6.5043526925       43.4487344668
H                20.1155843224       -7.9722868942       42.8915262323
H                19.4691297596       -6.4083339695       42.4168632108
H                19.8879470004       -5.0366679302       45.1403362968
H                18.3752333880       -4.8788177932       44.2387142076
H                18.3554526647       -5.4511704968       45.9061781063
H                25.7174923278        3.8424293138       30.4535895152
H                18.7752039907       11.1658249432       53.5302667733
H                28.0552794983       11.9487111381       50.7047958321
H                20.4563563876        7.0565950788       55.3490868375
H                16.4604000658       -6.7871550615       51.5464333615
H                18.9032091982       -7.9350443885       49.5229744719
H                25.8046879369       -8.1518908868       43.4376773520
H                28.4376780892       -7.7508998337       41.3230512297
H                24.8065755794       -9.1985836368       38.6042675750
H                27.4127750762       -6.7367809965       35.2769434993
H                23.3943621296       -6.0601267255       33.4564640109
H                25.7688873583       -4.5060696772       31.6023114857
H                16.2410772770       -7.0448228890       45.3864636549
H                17.9794754961       -9.7054372633       43.9671369299
