 432 
 
N                20.7213459272       39.1866352093       75.9162548910
C                19.6415970971       39.7412368948       75.1294596407
C                19.4540545992       41.2506896952       75.3489235390
O                18.9191713537       41.9547361080       74.5121165875
C                18.3751663860       38.9364618104       75.4454702014
C                17.1689757763       39.3365055898       74.6479428588
C                16.2270677338       40.1939971695       75.1968863851
C                16.9362291502       38.7915767285       73.3924254390
C                15.0612516450       40.4983242092       74.5204255992
C                15.7642520895       39.0856435816       72.7165940730
C                14.8250518635       39.9373789848       73.2770493152
H                20.4777963424       38.5297537870       76.6697005521
H                19.8858069845       39.6163307769       74.0678255027
H                18.6118249920       37.8864871807       75.2606207110
H                18.1658360747       39.0299218538       76.5154911058
H                16.3840566526       40.5758309287       76.1944207342
H                17.6537880541       38.1031401247       72.9744763035
H                14.3295624473       41.1437901334       74.9787065201
H                15.5605204913       38.6310799476       71.7599899091
H                13.9108646819       40.1618594286       72.7489193861
N                19.9633134401       41.7553840048       76.4887074512
C                20.0624207196       43.1910428381       76.6995588494
C                20.9393813874       43.8708152445       75.6202469262
O                20.6990073185       45.0087129461       75.2543263563
C                20.6629448478       43.5032206254       78.0801598321
C                19.6759213455       43.4361594988       79.2530222006
C                18.7658411245       44.6675040427       79.3278408105
C                17.9206298549       44.6514921440       80.6013649543
N                17.1941424996       45.9291546595       80.7918109066
H                20.3058224295       41.1382415225       77.2109287562
H                19.0694803237       43.6451092394       76.6048117335
H                21.4773048202       42.7988194482       78.2609023703
H                21.0975875740       44.5034856312       78.0488726438
H                19.0763383449       42.5274009044       79.2018463734
H                20.2579307037       43.3793440233       80.1737486492
H                19.3962135533       45.5575739616       79.3323631218
H                18.1048004731       44.6981356974       78.4626990533
H                17.1874426336       43.8445039233       80.5638969702
H                18.5496492876       44.4894088745       81.4771681648
H                16.4513873600       45.8665673156       81.5906200447
H                17.8304534734       46.6985343217       81.0164566923
H                16.6253554095       46.1783195939       79.9738919870
N                19.9969967302       43.8463404953       71.3070585534
C                18.9015516087       44.7021946666       70.8957448697
C                19.0804319555       46.1356936896       71.4158979374
O                18.6947430655       46.4326022274       72.5465510362
C                17.5966535085       44.2043957019       71.5534948353
C                17.1520433872       42.7899624886       71.1987896459
C                16.4355089907       42.7012962236       69.8530440620
C                16.2666536824       41.2467738573       69.4339187711
N                17.4735920908       40.8097707037       68.6600766430
H                20.3884230067       44.0347843350       72.2170002402
H                18.8504610539       44.6855832775       69.8042497353
H                17.7787282736       44.2362084217       72.6270961595
H                16.8152365558       44.9195455298       71.2957839171
H                18.0145671152       42.1299849735       71.2329697936
H                16.4737471216       42.4434226477       71.9801012592
H                15.4560384501       43.1710493937       69.9282622932
H                16.9942330547       43.2439279785       69.0912132789
H                16.1593477892       40.6297117166       70.3259213058
H                15.3724251059       41.1197689585       68.8247660102
H                17.3722613187       41.0946142226       67.6763664872
H                18.3256878904       41.2922132922       69.0264437934
H                17.5736975979       39.7874678906       68.6980267203
N                19.5305129493       47.0980309470       70.6047576395
C                19.4062799696       48.4561330596       71.1114129749
C                17.9604143106       48.5668846890       71.6244838000
O                17.0534728424       48.0605467510       70.9718776622
C                19.6476215022       49.4916326042       70.0065408404
O                20.9592681954       49.3279197194       69.5293592216
H                19.9214103369       46.9457662137       69.6887802300
H                20.1221992888       48.6193597104       71.9247466269
H                18.9184822861       49.3472873661       69.1978155842
H                19.4990903487       50.4903663959       70.4370479754
H                21.1909180695       50.0642520350       68.9523877636
N                17.7218403141       49.2971554847       72.7192900016
C                16.3751087273       49.4022273400       73.2770065713
C                15.3243002479       49.3515998039       72.1642494476
O                14.4393176014       48.5038792181       72.1708449819
C                16.2469729880       50.6923764199       74.1014438126
C                14.8013467319       51.1259396842       74.3947107779
C                13.9939324308       50.0382633766       75.0954663693
C                14.8254335117       52.3828455445       75.2641782124
H                18.4784402938       49.6423562691       73.2923340038
H                16.1758929931       48.5328662596       73.9170338764
H                16.7567863463       50.5518608889       75.0553927017
H                16.7397635757       51.5125884461       73.5761010063
H                14.2948694258       51.3772340368       73.4565039459
H                12.9848269646       50.3957620580       75.2973165629
H                13.9194084910       49.1371306063       74.4925841466
H                14.4455230358       49.7862152168       76.0530328291
H                13.8171404505       52.7480918715       75.4481699165
H                15.2759129310       52.1767543978       76.2327948527
H                15.3791059413       53.1931454389       74.7945995670
N                15.4189127448       50.2980831265       71.2244150179
C                14.4467692025       50.4755794042       70.1590364182
C                14.0099510857       49.1303259592       69.5544107951
O                12.8233822044       48.8617100058       69.3790972187
C                15.0629163840       51.3484124561       69.0677719503
H                16.1002333879       51.0356269786       71.3323496748
H                13.5406363268       50.9565119743       70.5537817398
H                14.3533822880       51.4698687970       68.2532039127
H                15.2920825909       52.3342206659       69.4655474683
H                15.9687293057       50.8906879228       68.6793730413
N                15.0165995083       48.3515634106       69.1473605684
C                14.7936988340       47.1268661921       68.3964914305
C                13.7765861803       46.2348857501       69.1188720249
O                12.8304136645       45.7039543829       68.5581784339
C                16.1113532928       46.3520434129       68.1629111536
C                17.2834564597       47.2292622652       67.6892099943
C                15.8581724917       45.2092690215       67.1805427525
C                17.0791329071       47.9449013691       66.3594782947
H                15.9240581819       48.4618057165       69.5896593124
H                14.3358377274       47.3994850456       67.4378028270
H                16.4063946550       45.9393485026       69.1336528626
H                17.5011276226       47.9672342165       68.4602434032
H                18.1561594470       46.5805196047       67.6027452522
H                16.7885768316       44.6892390532       66.9750082912
H                15.1233776245       44.5156900440       67.5785406983
H                15.4671502600       45.5964345134       66.2437009502
H                17.9443753727       48.5646020522       66.1358231214
H                16.9565630927       47.2374890727       65.5447611210
H                16.2024074755       48.5879692461       66.3895057655
N                14.0737806240       45.9948589733       70.4142668851
C                13.2140798532       45.1426078051       71.2086748081
C                11.9434539817       45.8367642811       71.6901187384
O                10.9065662713       45.2073941498       71.8800393058
C                13.9744774326       44.5245361837       72.3907890602
C                14.2390275146       45.4751271429       73.5687394021
C                15.6773644283       45.3404967225       74.0681126776
N                15.8202359625       45.9650165369       75.3662978268
C                16.9714118132       46.2591523470       75.9501548382
N                18.1327431990       46.2047449647       75.3152623540
N                16.9460509412       46.5612493393       77.2657581997
H                14.7222233040       46.6031140469       70.8985924843
H                12.8829572570       44.3332066843       70.5439544517
H                13.3927267937       43.6689036504       72.7295546039
H                14.9200089308       44.1524189709       72.0049590858
H                14.0693253132       46.5107157510       73.2792171288
H                13.5498206740       45.2593071560       74.3878864109
H                15.9450631898       44.2804309170       74.1474720479
H                16.3454464943       45.8386998971       73.3626546588
H                14.9939608137       45.9882606678       75.9691989005
H                18.2130308330       46.0860999431       74.3101822872
H                19.0003416035       46.3798813536       75.7996657790
H                16.0270664399       46.6400958755       77.6857812415
H                17.6798910846       47.1393042492       77.6450663770
N                12.0399953524       47.1489579440       71.8997045993
C                10.9084489066       47.9304357348       72.3439669334
C                 9.7002866930       47.5975750632       71.4614891664
O                 8.5776798261       47.4114444342       71.9224422121
C                11.2850731837       49.4091391998       72.2618385392
C                10.1686790686       50.3330504402       72.7423614744
C                 9.8272929404       50.0378331362       74.1926755999
O                10.4546805363       50.5136591813       75.1265330731
N                 8.7956998242       49.1923255210       74.3606433392
H                12.9107165078       47.6498354812       71.7597938884
H                10.6507607364       47.6587673410       73.3768738423
H                12.1679404126       49.5721450671       72.8810039408
H                11.5293572792       49.6464266601       71.2239308092
H                10.5108973173       51.3666319020       72.6854815012
H                 9.2822758011       50.2195947287       72.1174947245
H                 8.3662859597       48.7207049470       73.5767013844
H                 8.4903117077       48.9781979619       75.2963425913
N                10.0006234497       47.5089389659       70.1656739310
C                 9.0275160079       47.1508644825       69.1523175955
C                 8.3738554528       45.8162913096       69.5297525838
O                 7.1600514847       45.6904077455       69.6619567545
C                 9.7332212001       47.0569769058       67.7978181630
C                 8.7666820551       46.7518179499       66.6569065538
C                 8.0478962886       48.0274214079       66.1015679033
O                 7.9403190815       49.0077650177       66.8648593038
O                 7.6389059544       47.9440664350       64.9256681707
H                10.9142738516       47.8015397189       69.8391173106
H                 8.2355696246       47.9091400226       69.0889288134
H                10.2028058556       48.0246376299       67.6027817829
H                10.5212058195       46.3008084667       67.8458991997
H                 9.2840318716       46.2893674898       65.8160674131
H                 7.9778854956       46.0702623269       66.9856629454
N                 9.2318654418       44.8055590731       69.6754804708
C                 8.8477686533       43.4153610303       69.8702517916
C                 7.8968020505       43.2669313845       71.0590276066
O                 6.9406523006       42.5019567370       71.0392863407
C                10.1112542990       42.5666936738       70.0516802406
C                 9.8600891726       41.0815238262       69.8372219413
C                11.1693041499       40.2857053372       69.5104233556
O                10.9842945358       39.0924031300       69.1744636843
O                12.2608781032       40.8589414858       69.5918097461
H                10.2183377846       44.9929687521       69.5700728870
H                 8.2981334301       43.0801180649       68.9779347415
H                10.8461740069       42.8997201189       69.3122880008
H                10.5304277320       42.7517910275       71.0415264044
H                 9.3818226592       40.6418698776       70.7141534122
H                 9.1862727569       40.9297952652       68.9903475425
N                 8.2380680028       44.0060754132       72.1146258815
C                 7.4151998664       44.0938944211       73.3000873985
C                 5.9776213003       44.4504289737       72.9145955215
O                 5.0193075642       43.7511167323       73.2129798982
C                 7.9658492363       45.1639164565       74.2488753228
C                 7.0138154582       45.3420529344       75.4305656826
C                 9.3672220642       44.7929301113       74.7244107401
H                 9.0417534076       44.6170737857       72.0419770815
H                 7.3899560336       43.1157964686       73.7983645817
H                 8.0267779511       46.1027571932       73.6908692640
H                 7.2734160506       46.2384575754       75.9879869956
H                 5.9874226113       45.4500527356       75.0926591732
H                 7.0735507779       44.4833984203       76.0952988645
H                 9.7713859274       45.5842680392       75.3533380119
H                 9.3521400503       43.8760667903       75.3091786313
H                10.0453319070       44.6656815751       73.8864743361
N                 5.8508660323       45.6233387592       72.2850989306
C                 4.5452943480       46.1037044411       71.8775692080
C                 3.8355109902       45.0498045895       71.0195157102
O                 2.6826783911       44.7080298744       71.2474112639
C                 4.6789408218       47.4180610826       71.1230253027
H                 6.6597272495       46.1335234961       71.9570500564
H                 3.9237794480       46.2433767458       72.7728436598
H                 3.7052011977       47.7472130544       70.7709854848
H                 5.0928296042       48.1825429978       71.7749103418
H                 5.3395140273       47.2957003779       70.2672404922
N                 4.5764157527       44.5478922989       70.0287231594
C                 4.0270766960       43.6250793135       69.0599651083
C                 3.3176187417       42.4443478430       69.7234131098
O                 2.2055203547       42.0758484308       69.3580504774
H                 5.5063453935       44.9144974788       69.8655806901
H                 3.3041546596       44.1296305242       68.4082972705
H                 4.8478543684       43.2434037046       68.4507905827
N                 4.0122329151       41.8092512231       70.6712301541
C                 3.4900087142       40.5767621559       71.2339530889
C                 2.3594873488       40.8566198160       72.2272089540
O                 1.3799651658       40.1236229728       72.2763354929
C                 4.6098040540       39.6957922813       71.8190322999
C                 4.2136554434       38.2137877934       71.7764851947
C                 4.9662869215       40.1103389832       73.2435691792
C                 4.2234643719       37.6197387004       70.3730261305
H                 4.9493026963       42.1075293243       70.9153390286
H                 3.0083500799       40.0448131638       70.4029746499
H                 5.4916635282       39.8467245891       71.1858793635
H                 4.9348469267       37.6655339136       72.3846332726
H                 3.2252037933       38.1120093493       72.2270138537
H                 5.8303331594       39.5418173686       73.5776878990
H                 5.2175075060       41.1675787749       73.2835360763
H                 4.1325055601       39.9204576504       73.9149886786
H                 3.9977722766       36.5587731424       70.4217844010
H                 3.4906414535       38.1095535691       69.7370156715
H                 5.2057375983       37.7512640557       69.9248493931
N                 2.5321541498       41.9218679428       73.0156865627
C                 1.4877279033       42.3638870006       73.9129502437
C                 0.2335592737       42.7937881970       73.1484927108
O                -0.8555221410       42.8096215447       73.7067283081
C                 1.9558953922       43.5156948058       74.8139348692
C                 2.3797786704       43.0980298845       76.2252934421
C                 1.2089824816       42.6055771367       77.0814598673
N                 1.5640796642       42.6901389837       78.4904917537
C                 0.7449528552       42.4629946957       79.5110180257
N                -0.5298682924       42.1507684846       79.3334145626
N                 1.2236775437       42.5431760797       80.7593045221
H                 3.3411404170       42.5194816672       72.9011896254
H                 1.1669907059       41.5020906854       74.5132812726
H                 2.7948812761       44.0040925654       74.3154604593
H                 1.1476791345       44.2452472528       74.8897207663
H                 3.1489369669       42.3293212564       76.1573509087
H                 2.8113537083       43.9819396816       76.6976784806
H                 0.3285376989       43.2243592605       76.8828235207
H                 0.9585144086       41.5687763803       76.8384686928
H                 2.5243428003       42.9274864764       78.6967771392
H                -0.9638920695       42.0648512717       78.4198839605
H                -1.1276443603       42.0227579382       80.1315997403
H                 2.1709784677       42.8383453181       80.9429964030
H                 0.5988291692       42.4939953477       81.5459596097
N                 0.3940799374       43.1212265836       71.8624776325
C                -0.7596717497       43.4670004453       71.0565333781
C                -1.5375194413       42.1762400184       70.7483375591
O                -2.7149681559       42.0344318737       71.0500148239
C                -0.3309038170       44.1796199465       69.7808143746
H                 1.3077037353       43.3427087545       71.4892837961
H                -1.4355112328       44.1022435778       71.6455114314
H                -1.1962739451       44.3821413133       69.1559592154
H                 0.1510559924       45.1204969005       70.0342762767
H                 0.3786730223       43.5694423344       69.2275266422
N                 5.3882229121       38.8041469687       78.9181543722
C                 6.5815889834       38.3883079379       78.1889950929
C                 7.8114666326       38.3558739644       79.1131575978
O                 8.2554581623       39.3615445995       79.6634284726
C                 6.7064925870       39.4600662674       77.1054823204
C                 6.2181338124       40.7201771357       77.8174957740
C                 5.0920106426       40.2171429540       78.7286128905
H                 6.4222556367       37.3809026188       77.7972585235
H                 7.7250900389       39.5680659299       76.7476628830
H                 6.0380236883       39.2148448043       76.2796876400
H                 7.0137942632       41.1465711766       78.4257339802
H                 5.8701806283       41.4814631059       77.1240009858
H                 5.0905668395       40.7516628171       79.6809093619
H                 4.1156688182       40.3251259465       78.2452072199
N                12.6437618328       33.9698248159       75.0115512584
C                11.4412075008       34.7494592406       75.2397906055
C                10.2682516846       33.7761926275       75.3793543583
O                10.1543638957       32.8574714336       74.5765117550
C                11.2175557866       35.7610744877       74.0859391176
C                11.6900221793       35.2414633682       72.7283782352
C                11.2340472005       36.1594165605       71.5885415632
C                11.6415600932       35.6082597144       70.2162767315
N                10.9937311953       36.3725458692       69.1161862014
H                12.5884595592       33.2582785823       74.2953273335
H                11.5650147008       35.2934878450       76.1786762177
H                10.1553818784       36.0098934607       74.0537126779
H                11.7514623956       36.6806885290       74.3291372532
H                12.7785272079       35.1877250818       72.7323678097
H                11.2879657188       34.2378478023       72.5842622200
H                10.1519563227       36.2771178026       71.6422651331
H                11.6672615378       37.1497878758       71.7264031406
H                12.7221238500       35.6990287568       70.1009004080
H                11.3698681818       34.5553442737       70.1358054069
H                11.3427357054       36.0894804859       68.1929342076
H                 9.9696290997       36.3134111369       69.1481483586
H                11.1896966943       37.4110936498       69.2089691422
N                10.8519104213       45.5421218481       83.2907309769
C                11.9383678442       46.3939906436       82.8604739977
C                11.4160901150       47.7290132145       82.2931541768
O                10.2424623515       48.0612255337       82.3330686353
C                12.7639702345       45.6380462787       81.8199896057
C                14.1955330375       46.1528658138       81.5742798722
O                15.0863283730       45.7593051640       82.3733114357
O                14.4325872486       46.8569245549       80.5749374733
H                10.5223133978       44.8899711418       82.5927009709
H                12.5472954160       46.6420704298       83.7460772692
H                12.8600978754       44.6067538283       82.1664027086
H                12.2175917295       45.6418734432       80.8747445809
N                12.3969834167       48.4816160781       81.7702716052
C                12.1857056805       49.7609150565       81.1220599832
C                11.3394566068       49.4952108957       79.8777782846
O                10.3157589670       50.1052526770       79.6199984524
C                13.5009355961       50.4572587512       80.7180708527
C                14.7085358509       50.1052488608       81.5857825777
C                14.4961468115       50.1953340940       83.1385752793
O                13.6419317212       50.9877992759       83.5798149181
O                15.2506790023       49.4620111036       83.8133317739
H                13.3466674289       48.1600271831       81.8266254464
H                11.6132062018       50.4031187227       81.8033038405
H                13.7349979551       50.1946508830       79.6837156666
H                13.3212005657       51.5310046720       80.7698420643
H                15.0588141412       49.0936677547       81.3718910474
H                15.5229681813       50.7946594536       81.3540435791
N                11.8858326165       48.5684882325       79.0606351339
C                11.0529190976       47.8986127448       78.0805552775
C                10.1527117333       46.9051645887       78.8309772374
O                10.2646112121       46.6978352661       80.0271971601
C                11.9181913879       47.2433204634       77.0166328626
C                12.7298997869       46.0626541450       77.6358924878
O                12.0832994786       45.1927841786       78.2470582446
O                13.9565376590       46.0734403838       77.4303982431
H                12.6171884990       47.9966733913       79.4715886513
H                10.4097128088       48.6759505585       77.6478158964
H                11.2941552993       46.8430537081       76.2162347828
H                12.6001977610       47.9846122826       76.6005189609
N                 9.1374791393       46.3718429934       78.1161888737
C                 8.1106279911       45.6278910596       78.7970990876
C                 8.4186623682       44.1647938156       79.0647812713
O                 7.5370776980       43.4422670755       79.5303619977
H                 9.0916168742       46.4684322721       77.1150150321
H                 7.9812127300       46.0832793154       79.7877297350
H                 7.1658514399       45.7055488711       78.2573391100
N                 9.6267503347       43.7033653739       78.7476985203
C                10.0084913205       42.3922616601       79.2301285359
C                10.2196731085       42.4257170357       80.7493916892
O                10.4857685673       43.4537883148       81.3570362605
C                11.3219314407       41.9532644805       78.5786608087
C                11.1853994180       41.6224013018       77.1161481724
C                10.3260965343       40.6172991786       76.6897917108
C                11.9672272523       42.2757641088       76.1730101390
C                10.2506360019       40.2738228484       75.3501120669
C                11.8825904813       41.9389411108       74.8331278290
C                11.0272933534       40.9349699730       74.4158827750
H                10.3905192936       44.3514165594       78.5598311037
H                 9.1959701738       41.6923697708       79.0069632317
H                12.0380323894       42.7657018666       78.7044894572
H                11.6992254275       41.0767485818       79.1134400915
H                 9.7355137132       40.0869929220       77.4233849372
H                12.6365782478       43.0601099803       76.4969948231
H                 9.5987870332       39.4777171701       75.0314830366
H                12.4825668174       42.4666756578       74.1077677094
H                10.9660287550       40.6802044459       73.3685508090
N                 8.8732867462       32.8366576730       70.0048477442
C                 8.4109094159       33.4798355189       71.2829716194
C                 7.5779931257       32.3876415564       72.0234853963
O                 6.4340328762       32.1728125153       71.6678013026
C                 7.5105762660       34.6803834846       70.9470020469
C                 7.5788519419       35.7363650985       72.0186941876
C                 7.3612560631       35.3906673826       73.3456063860
C                 7.8964743717       37.0559938995       71.7084062065
C                 7.4609161839       36.3484300166       74.3380644730
C                 8.0096936071       38.0136040391       72.7027508195
C                 7.7880619456       37.6565339587       74.0197739628
H                 9.3416329277       33.5107411664       69.3795804129
H                 9.5097658765       32.0438597888       70.1939494281
H                 8.0369635386       32.4750510663       69.5087438869
H                 9.2717523056       33.7849376815       71.8805311591
H                 7.7835211315       35.1309716499       69.9936634887
H                 6.4783080169       34.3248789640       70.8670438861
H                 7.1020439066       34.3767157340       73.6080577655
H                 8.0471453604       37.3653894517       70.6845654920
H                 7.2966930318       36.0891324003       75.3726630335
H                 8.2591924753       39.0340245006       72.4492397434
H                 7.8497680004       38.3919509896       74.8052888671
N                12.3969834167       58.4375359033       78.0308936577
C                12.1857056805       57.1582369249       78.6791052797
C                11.3394566068       57.4239410857       79.9233869782
O                10.3157589670       56.8138993043       80.1811668104
C                13.5009355961       56.4618932302       79.0830944102
C                14.7085358509       56.8139031206       78.2153826852
C                14.4961468115       56.7238178874       76.6625899835
O                13.6419317212       55.9313527055       76.2213503448
O                15.2506790023       57.4571408778       75.9878334889
H                13.3466674289       58.7591247983       77.9745398165
H                11.6132062018       56.5160332587       77.9978614224
H                13.7349979551       56.7245010984       80.1174495963
H                13.3212005657       55.3881473094       79.0313231985
H                15.0588141412       57.8254842267       78.4292742154
H                15.5229681813       56.1244925278       78.4471216837
H                21.2813024545       38.7308945934       75.3789010239
H                21.7097254624       43.3763548318       75.2176566799
H                19.7183385755       42.9908208453       71.3279334465
H                -1.0813917344       41.4159364702       70.2858594195
H                 4.7697788558       38.1514432055       78.8793633085
H                 8.2838167059       37.4917226223       79.2867314040
H                13.3141540601       34.5170396866       74.7643061437
H                 9.6059897719       33.8941475036       76.1192839537
H                11.1160682219       45.0525713467       83.9982343076
H                10.1411975832       41.5841161922       81.2837601128
H                 7.9853801801       31.8750701935       72.7793335198
H                12.1003365756       58.3969056627       77.1821594029
H                11.6173272042       58.1289808821       80.5758490971
