 225 
 
N                34.7859920614       -9.9878112390      -30.0250928271
C                34.6772611445       -8.5419496756      -29.6053830085
C                34.0339432624       -8.4525292054      -28.1509099979
O                34.7879201334       -8.5627088639      -27.1956611002
C                34.0410549756       -7.7197147281      -30.7477939059
C                34.0757672106       -6.2070819848      -30.4975151755
S                32.7363281146       -5.3716549620      -31.4435408585
C                32.3825635606       -3.8980125279      -30.4398277427
H                35.4159096383      -10.0783813387      -30.8374288832
H                35.1687230044      -10.5533193819      -29.2485883826
H                33.8634228123      -10.3776187945      -30.2776129980
H                35.6974742444       -8.1813955995      -29.4341834145
H                34.5918691939       -7.9266805571      -31.6661362040
H                33.0048365409       -8.0182592549      -30.9192331202
H                33.8954505034       -5.9910855980      -29.4434686781
H                35.0353904674       -5.7775878562      -30.7799147645
H                32.8747758595       -3.0350516441      -30.8809752096
H                31.3056596690       -3.7682509109      -30.4831939286
H                32.7135430118       -4.0586030046      -29.4222322122
N                32.6916839608       -8.2887120030      -28.1366115427
C                31.7470611279       -7.7140721571      -27.1378274512
C                31.7413135072       -8.3313547221      -25.6724832610
O                32.4292904475       -7.8039338766      -24.8083307721
C                30.3527210682       -7.6388418646      -27.8199710551
C                30.2211740053       -6.5303425360      -28.8965795423
C                29.0820627287       -6.8457123218      -29.8671532572
C                30.0018810654       -5.1672804262      -28.2449540900
H                32.2472101175       -8.3122357050      -29.0469714754
H                32.1041714797       -6.6944306871      -26.9325492777
H                30.1394457116       -8.6082144441      -28.2748467349
H                29.6018575402       -7.4621998963      -27.0498402528
H                31.1448114621       -6.4872466507      -29.4810764894
H                29.0549443615       -6.1022576882      -30.6585580874
H                29.2238886470       -7.8177077961      -30.3343083360
H                28.1226150420       -6.8432745608      -29.3587095695
H                29.8340480116       -4.4096533498      -29.0040196456
H                29.1262183059       -5.1935389542      -27.6021931349
H                30.8627755747       -4.8686446166      -27.6498220288
N                30.8800712104       -9.3372862532      -25.3937783547
C                30.5417770228       -9.7841667396      -24.0337379480
C                30.5849212154      -11.3351163179      -23.8873185681
O                29.6804324082      -12.0603909860      -24.2884034903
C                29.1087824354       -9.3238147850      -23.6644259006
C                28.8947921843       -7.7992203095      -23.6604984753
C                27.4099901345       -7.4372215434      -23.7521231957
C                27.1918769015       -5.9262334894      -23.8112060838
N                25.7365145035       -5.6448979369      -24.0035106066
H                30.3319024392       -9.7539860110      -26.1332343847
H                31.2834351884       -9.3416985823      -23.3652013668
H                28.4375452977       -9.8024501686      -24.3836146618
H                28.8776949771       -9.7424138694      -22.6843465066
H                29.3230620636       -7.3949250341      -22.7457674661
H                29.4239494247       -7.3745147114      -24.5158223253
H                26.9939936251       -7.9145008241      -24.6423085555
H                26.9044508240       -7.8585732123      -22.8812724823
H                27.5227060449       -5.4720842704      -22.8774591868
H                27.7483962380       -5.4921269817      -24.6409345680
H                25.5390630594       -4.6351357923      -24.0236305069
H                25.4037322510       -6.0716743680      -24.8822254670
H                25.1993523750       -6.0692428299      -23.2303959131
N                31.6562404571      -11.8137500550      -23.2532284903
C                31.8103861874      -13.2149542827      -22.9069188972
C                31.9622295830      -13.2285711531      -21.3764387439
O                31.1951436229      -12.6057363271      -20.6604844136
C                32.9631083093      -13.8282458030      -23.7059827902
C                32.7268761592      -13.7587741061      -25.2184079280
C                33.9426772876      -13.1507058209      -26.0219475141
O                34.7662294293      -12.4451249273      -25.4039246735
O                33.9616052302      -13.4097535430      -27.2455410956
H                32.4017172839      -11.1930111155      -22.9659711680
H                30.8615101195      -13.7040628358      -23.1641614888
H                33.8780595254      -13.2575344501      -23.5092103584
H                33.1006211557      -14.8732531533      -23.4250058658
H                32.4883878569      -14.7425028356      -25.6275576857
H                31.8753226939      -13.1155545392      -25.4504018414
N                33.0366739328      -13.8939455101      -20.9090266055
C                33.4436412867      -13.8466782678      -19.5121625015
C                34.8654001045      -13.2651854536      -19.3553699522
O                35.1993048373      -12.5914498286      -18.3916362082
C                33.3474019134      -15.2387047459      -18.8561307340
C                33.2689856609      -15.2817472516      -17.3465512762
C                32.9605241007      -14.1746318321      -16.5654789725
C                33.3804577192      -16.5300744937      -16.7351627356
C                32.7000313307      -14.3275366444      -15.2142693017
C                33.1050429360      -16.6863152845      -15.3885810765
C                32.7401286400      -15.5836654705      -14.6294432155
H                33.4798983763      -14.5683749237      -21.5119075306
H                32.7477308572      -13.1566901704      -19.0276648109
H                32.4178620191      -15.6900052998      -19.2205866268
H                34.1758681574      -15.8648202685      -19.1957990657
H                32.9005930828      -13.1873732747      -16.9950500622
H                33.6620923750      -17.3911553593      -17.3246746206
H                32.4469677674      -13.4630963273      -14.6205963690
H                33.1863641274      -17.6577300502      -14.9223944906
H                32.5151592592      -15.6951950314      -13.5795204646
N                35.7252880942      -13.5903829537      -20.3525993875
C                37.0785866391      -13.0790621158      -20.3649340971
C                37.1686365248      -11.6354747850      -20.9100029257
O                38.2171371135      -11.0341066699      -20.7232048875
C                38.0605818004      -14.0474055389      -21.0680850984
C                39.4925483789      -13.8486387404      -20.5494702652
C                40.5560566600      -14.3647200126      -21.5168256606
C                41.9145796369      -13.7453234342      -21.1971010511
N                42.8742663899      -13.9648193489      -22.3178780669
H                35.4189160312      -14.1266641922      -21.1490516297
H                37.3687639031      -12.9836667113      -19.3082785767
H                37.7249555089      -15.0641069836      -20.8635365272
H                38.0007497165      -13.8833082702      -22.1458357927
H                39.6274553625      -12.7822640918      -20.3751718753
H                39.5868170686      -14.3441272808      -19.5839203546
H                40.6062385581      -15.4501225423      -21.4441237990
H                40.2495445809      -14.1203210700      -22.5346367562
H                41.8200597100      -12.6777198301      -21.0083417458
H                42.3234703467      -14.2017141753      -20.2952121485
H                43.7715360595      -13.4892054955      -22.1332687658
H                43.0613478348      -14.9758910712      -22.4143463881
H                42.4987975025      -13.6418609809      -23.2232943678
N                36.1103182322      -11.1114594446      -21.5626058648
C                35.9454180092       -9.7061261127      -21.9832771796
C                34.4697982089       -9.3484412832      -21.7535166890
O                33.6128221120      -10.0665178312      -22.2555020241
C                36.2855517936       -9.5347081040      -23.4954411357
C                36.2846550384       -8.0878345012      -24.0406136799
C                37.6634888345       -7.3950648198      -24.4146039035
O                38.7228807264       -7.9433630222      -24.0653412804
O                37.5746885601       -6.3156269003      -25.0319525178
H                35.2833674592      -11.6791361102      -21.7000592079
H                36.6124015707       -9.0940724279      -21.3684920025
H                37.2777962811       -9.9635138107      -23.6477110728
H                35.5671536321      -10.1324401151      -24.0608230439
H                35.7007063499       -8.0413894434      -24.9625358789
H                35.8016855512       -7.4053241668      -23.3335283398
N                34.1456067146       -8.2792941877      -20.9950094879
C                32.7539738221       -8.0026696067      -20.6652090701
C                32.0869025341       -6.8533428826      -21.4859672834
O                30.8734487933       -6.7842529612      -21.4195037013
C                32.4945630582       -7.7869987493      -19.1498444204
C                32.1253750364       -8.9348318629      -18.1936798345
C                32.4906975272       -8.7786973564      -16.8503865336
C                31.3150472463      -10.0247546223      -18.5046971246
C                32.0558619163       -9.6477204395      -15.8641036866
C                30.8838135652      -10.9024768509      -17.5174354269
C                31.2377851404      -10.7146120914      -16.1924437932
H                34.8594454112       -7.7475274164      -20.5181642468
H                32.1933453433       -8.8927964025      -20.9807544357
H                33.3543396828       -7.2621733328      -18.7263458383
H                31.6396640283       -7.1036709795      -19.0912522221
H                33.1241349423       -7.9477835260      -16.5708654963
H                31.0044732499      -10.2034624965      -19.5243643965
H                32.3705264619       -9.4878313013      -14.8443121634
H                30.2618953868      -11.7397906891      -17.7961573785
H                30.8960176987      -11.3936501742      -15.4272276997
N                32.8636584461       -5.9863536195      -22.1786491332
C                32.4561116458       -5.1128146080      -23.3131578877
C                33.2350757598       -3.7689370429      -23.4938122412
O                33.1646137126       -3.2585036475      -24.6014447793
C                30.9677094030       -4.7468265781      -23.3852858458
H                33.8358406545       -6.2544872117      -22.2624008739
H                32.6983436875       -5.6813799929      -24.2218914083
H                30.8264325518       -4.1161999141      -24.2578450870
H                30.3705088116       -5.6436048268      -23.4701601225
H                30.6711607565       -4.2036205308      -22.4914728006
N                33.8531089917       -3.2407498922      -22.4077341993
C                34.7091322498       -2.0434424541      -22.2287300723
C                35.4446732354       -2.1836124325      -20.8317710825
O                35.5074290695       -3.2804686275      -20.2740384207
C                33.9285559494       -0.7141125308      -22.3271765129
C                33.3734748755       -0.3269304562      -23.7090373179
C                32.6558941203        1.0199531896      -23.5600268058
C                34.4622860363       -0.2719152952      -24.7835561588
H                33.9058451447       -3.8417971192      -21.5891957144
H                35.4969665544       -2.0595730774      -22.9934111988
H                33.0973436370       -0.7560038466      -21.6201275915
H                34.5938632044        0.0934206202      -22.0211199560
H                32.6409759463       -1.0753637672      -24.0212504016
H                32.1748507850        1.2965205631      -24.4948326034
H                31.8910573338        0.9612167720      -22.7895225071
H                33.3626444570        1.8028166620      -23.2921164897
H                34.0621959601        0.1769472180      -25.6894019470
H                35.3181212179        0.3142405060      -24.4550917765
H                34.7929022266       -1.2756092812      -25.0345730386
N                41.4743996902       -1.8167592047      -27.5835948982
C                41.3864119596       -3.0268620892      -26.7727742962
C                41.4483550967       -4.2856223678      -27.6640747502
O                40.5643850188       -4.4673407168      -28.5006975890
C                40.0201722401       -3.1656018728      -26.1044355502
C                39.7146520641       -1.9994497080      -25.2089701339
S                38.4677089267       -2.5570549142      -24.0667450770
C                39.4993718509       -3.6205031819      -23.0008005803
H                40.6753830476       -1.6255274857      -28.1734890931
H                42.2001395445       -2.9852935342      -26.0436410859
H                39.2494392865       -3.2490877758      -26.8760666910
H                40.0043710204       -4.1041596278      -25.5457122024
H                40.5857999893       -1.6532376397      -24.6457804754
H                39.2957964885       -1.1537595279      -25.7529903177
H                38.9526904398       -3.6813748630      -22.0667252301
H                39.5909610959       -4.6147811037      -23.4316936353
H                40.4600641284       -3.1331683891      -22.8780485895
N                41.5704187881       -8.6674999425      -27.7974198161
C                41.5883678135       -9.9586103207      -27.1000896421
C                42.5939809894      -10.7906831879      -27.9274263266
O                42.5682309268      -10.7506805766      -29.1537452968
C                40.2162241036      -10.6547195190      -26.8851112894
C                40.1428373457      -11.5627160640      -25.6340184303
C                40.1437640742      -10.6991330784      -24.3666204462
C                40.3060536586      -11.4193001018      -23.0224783177
N                40.5389567256      -10.3689118274      -21.9720557306
H                41.6921485262       -8.7765271548      -28.7976986779
H                42.0330842313       -9.7516479231      -26.1187600260
H                39.4677299943       -9.8650807763      -26.7846284874
H                39.9851666928      -11.2418995375      -27.7740400731
H                39.2259622843      -12.1488451703      -25.6912473862
H                40.9916511178      -12.2508005741      -25.6284491842
H                40.9695196828       -9.9891341208      -24.4581246994
H                39.2416777548      -10.0866088540      -24.3618746987
H                39.4002590366      -11.9692820533      -22.7695887279
H                41.1536297258      -12.1052858834      -23.0466598169
H                40.3481201771      -10.7131029679      -21.0237868036
H                41.4986624141      -10.0050566085      -22.0287372736
H                39.9091968784       -9.5749924946      -22.1861305749
H                35.8585885796       -1.3811887442      -20.4018986450
H                41.5679968753       -1.1010597064      -27.0459948656
H                42.1986199828       -4.9379625991      -27.5565813858
H                40.7817539350       -8.2587912106      -27.6526271303
H                43.2690340526      -11.3645141811      -27.4637223768
