 252 
 
N                32.7019937187       -6.0485104648      -21.2055298641
C                32.4370349335       -5.1032797424      -22.2921839645
C                33.6388839240       -4.1559925265      -22.3801943355
O                34.5925259460       -4.4284364146      -23.1128482746
C                31.0967368950       -4.4085556838      -22.0579736456
H                33.6265993084       -6.0129968106      -20.8038093181
H                32.4124047858       -5.6646532323      -23.2404006808
H                30.9698913817       -3.6046057717      -22.7758694465
H                30.3103265119       -5.1474290441      -22.1788136802
H                31.0543976562       -4.0139527470      -21.0470314604
N                33.5492542786       -3.0391772851      -21.6452772135
C                34.6467565625       -2.1264329350      -21.4218055272
C                35.0125166209       -2.2623918332      -19.9495547922
O                34.2566898683       -2.8506726082      -19.1624021655
C                34.2162400018       -0.6842196039      -21.7465083914
C                33.4639122768       -0.5729969130      -23.0771152359
C                32.8966230622        0.8343611342      -23.2394519306
C                34.3647488421       -0.9244886464      -24.2578218349
H                32.8552747782       -2.9923425722      -20.9105575521
H                35.4874830804       -2.4141333429      -22.0616746961
H                33.5770647030       -0.3211500396      -20.9354090136
H                35.1085750678       -0.0538026810      -21.7820143922
H                32.6315660219       -1.2853497911      -23.0548484414
H                32.3330717499        0.9007503024      -24.1656750268
H                32.2543326966        1.0878024372      -22.3998048851
H                33.7048224484        1.5626011399      -23.2786147031
H                33.8312506724       -0.7874226325      -25.1955425768
H                35.2546834602       -0.2939096607      -24.2792523991
H                34.7106236002       -1.9535155471      -24.2017237752
N                36.2152031464       -1.7698220870      -19.5618363732
C                36.5105627822       -1.6931231895      -18.1375338432
C                35.6017950400       -0.5927925914      -17.5702181470
O                35.7753371905        0.5960715404      -17.8220976319
C                37.9966010709       -1.4681881631      -17.8964522091
C                38.8187317129       -2.5067991786      -18.6720053774
C                40.1206042768       -2.8887391436      -17.9686968667
C                40.8720696133       -3.9188974191      -18.8092972276
N                42.0839646334       -4.4185374891      -18.1013350568
H                36.6915265975       -1.1118921659      -20.1594818231
H                36.2262240469       -2.6652434922      -17.7179199937
H                38.2587019598       -0.4499645143      -18.1933614109
H                38.1674316966       -1.5482805330      -16.8201954100
H                38.2069177090       -3.4004362145      -18.8044556062
H                39.0353670197       -2.1138193709      -19.6665742430
H                40.7170871112       -1.9857191767      -17.8299254896
H                39.8750646486       -3.2986542750      -16.9879479370
H                40.2163480928       -4.7645157500      -19.0244642936
H                41.1721048863       -3.4585037265      -19.7515042157
H                42.5907714211       -5.0906539152      -18.6971764652
H                42.7079765058       -3.6284493880      -17.8795340854
H                41.8144447497       -4.8729430447      -17.2149690466
N                34.5458896855       -1.0863354421      -16.8908540514
C                33.4600149946       -0.2586794343      -16.4006063652
C                33.8398193435        0.4837528610      -15.1218079287
O                34.8804600346        1.2000794436      -15.0556670852
H                34.3735943336       -2.0783415742      -16.9606372803
H                33.2397020078        0.5050110496      -17.1596306929
H                32.5714712900       -0.8765970511      -16.2757452510
N                32.7834382705        0.6558656234      -14.2181692696
C                33.0494092099        1.4045493225      -13.0157865463
C                34.0586154220        0.7705132869      -12.0656572868
O                34.6135124319        1.4705726034      -11.1441552195
C                31.7293297633        1.7422347069      -12.2886019204
C                31.8657218388        3.0527874488      -11.5357266518
O                32.5335974016        3.9981814133      -11.9391710798
N                31.0840279763        3.1635841379      -10.4297846160
H                32.2386284060       -0.1803162019      -14.0513179862
H                33.5044123455        2.3587797870      -13.3248384868
H                30.9518640083        1.8665594597      -13.0433654233
H                31.4415991058        0.9369234854      -11.6117893459
H                31.2783197203        3.9495088141       -9.8273228534
H                30.7193351016        2.3318890543       -9.9959574863
N                34.6165914794       -0.4717518683      -12.4125437023
C                35.9736290982       -0.6574448577      -11.8753939706
C                36.7800699579        0.6296513026      -11.9175446292
O                37.5782188107        0.9521025124      -10.9928760342
C                36.7048551236       -1.7885825588      -12.6157715451
C                37.9790194551       -2.1680680007      -11.8590564105
C                35.8219929970       -3.0288899933      -12.7647627825
H                34.5714841570       -0.6318503930      -13.4286870604
H                35.8586910757       -0.9334198968      -10.8155238028
H                36.9775615959       -1.3943886783      -13.6038229763
H                38.5659142624       -2.8731066943      -12.4421439395
H                38.5851180766       -1.2882976775      -11.6511275989
H                37.7272567780       -2.6218473406      -10.9017807696
H                36.4074841325       -3.8398040002      -13.1889409980
H                35.4541333666       -3.3327602875      -11.7889675649
H                34.9668484168       -2.8317824985      -13.4029446546
N                36.7710848490        1.3204635925      -13.0896588357
C                37.3192305850        2.6744270856      -13.1138871126
C                37.4848757572        3.2837615779      -11.7323305790
O                38.5996541629        3.6696394270      -11.3185007064
C                36.4153663256        3.5786016752      -13.9559614084
C                36.9753037325        4.9797633608      -14.1964664235
C                38.2493603359        4.9377765921      -15.0371423527
C                35.9206022253        5.8356021665      -14.8943366157
H                35.9420800406        1.2165028164      -13.6933791721
H                38.3307747167        2.6021446166      -13.5489858601
H                36.2198822617        3.0955008743      -14.9167568049
H                35.4609456416        3.6626545604      -13.4262452079
H                37.2054872023        5.4208907749      -13.2178459047
H                38.5563073592        5.9456215903      -15.3060682442
H                39.0617293718        4.4720923569      -14.4851555758
H                38.0863826207        4.3661093263      -15.9498344859
H                36.3099767386        6.8349875963      -15.0674918531
H                35.6545889038        5.3893689345      -15.8502176705
H                35.0262271445        5.8950111097      -14.2795341819
N                36.3233631425        3.5698536679      -11.0820276330
C                36.4601267876        4.2972460837       -9.8387399098
C                37.3394791883        3.5969937367       -8.8175576026
O                38.1312188718        4.2217033743       -8.0977511022
C                35.1087847928        4.5928707812       -9.2020761261
C                35.3190154028        5.6416095729       -8.0633434555
O                35.2564711621        5.2214716650       -6.8925362147
O                35.5069085153        6.8197355285       -8.4210142966
H                35.6038933097        2.8229135151      -11.1101916273
H                36.9619858585        5.2480903791      -10.0868774518
H                34.4380226734        5.0028989363       -9.9595024797
H                34.6910595429        3.6740213258       -8.7875723968
N                37.1163632807        2.2667894568       -8.7036122123
C                37.9309850100        1.4714733695       -7.8083588826
C                39.4271939931        1.6050879809       -8.0951527972
O                40.2380824683        1.6884968291       -7.1709560212
C                37.4828335188        0.0136708568       -7.9247458092
C                38.1998367422       -0.9447732751       -6.9696007837
C                37.7524358680       -0.7353342881       -5.5240281949
C                37.9317510966       -2.3827204000       -7.4088270071
H                36.9473496995        1.7845887110       -9.5917498574
H                37.7796991995        1.8548197318       -6.7894978930
H                36.4045013697       -0.0278443130       -7.7476147640
H                37.6680028886       -0.2763881597       -8.9618382408
H                39.2761456019       -0.7465066548       -7.0340620693
H                38.2140248505       -1.4802027785       -4.8800306836
H                38.0520768395        0.2489558154       -5.1728501148
H                36.6715936729       -0.8225267686       -5.4479609493
H                38.4519164195       -3.0810392895       -6.7573159277
H                36.8642903775       -2.5856432656       -7.3792958485
H                38.2866982757       -2.5308924807       -8.4257129563
N                39.8067557106        1.5565339763       -9.3814447081
C                41.1952050758        1.7764018373       -9.7491269297
C                41.7102156351        3.1352598279       -9.2819846995
O                42.7545339227        3.2619270586       -8.5692168335
C                41.3285045831        1.6312783908      -11.2621388900
H                39.1190103162        1.6103779050      -10.1298605115
H                41.8168501112        1.0307580230       -9.2247119901
H                42.3672163045        1.7880587930      -11.5435530481
H                41.0282364381        0.6371852878      -11.5852841848
H                40.7105130102        2.3968564925      -11.7216680890
N                41.0087687952        4.2303143715       -9.7252922162
C                41.3292388725        5.5500518251       -9.2224712715
C                41.6465346447        5.5560296742       -7.7329138754
O                42.6741605606        6.1042095416       -7.2581370321
C                40.1814742615        6.5274117723       -9.5328440240
C                40.0165470614        6.6592627129      -11.0514207832
C                40.4756151626        7.8778105264       -8.8866690629
C                38.8609492590        7.5527249278      -11.4857976324
H                40.0277960185        4.0839402867       -9.9489212078
H                42.2603434543        5.8893636884       -9.7181571018
H                39.2757847161        6.1089544107       -9.0730942094
H                40.9522972711        7.0635039756      -11.4401359840
H                39.8856260902        5.6555966013      -11.4616211141
H                39.6565398007        8.5687300982       -9.0565631782
H                40.6298914266        7.7652884774       -7.8125463584
H                41.4028412205        8.2940785539       -9.2825293805
H                38.7567768257        7.4754425442      -12.5632294740
H                37.9456401361        7.2414958625      -10.9904546432
H                39.0647682746        8.5868983098      -11.2288991177
N                40.6935420737        5.0396940926       -6.9252484801
C                40.9023705475        4.9186314803       -5.4943945782
C                42.2898042904        4.4166248030       -5.1348903240
O                42.9906818236        5.0190962708       -4.2668298278
C                39.8107127007        4.0217218265       -4.9172745664
H                39.9745065565        4.4467538474       -7.3219388350
H                40.8541821493        5.9350484146       -5.0538835938
H                39.9146049911        3.9929585485       -3.8367210548
H                38.8230767850        4.3982401308       -5.1791408657
H                39.9568790899        3.0320639632       -5.3393919047
N                42.6780865757        3.1827336575       -5.6811887700
C                43.9543664166        2.6985240486       -5.1941411913
C                45.1572849324        3.5027072920       -5.6818488446
O                46.2104406831        3.5571604236       -5.0241165988
C                44.1519438908        1.2066649053       -5.5189279396
C                44.5243661728        1.0011703984       -6.9782981976
C                45.2326816940        0.6254414088       -4.6141509922
H                42.6616213799        3.1579124701       -6.7110274457
H                43.9458681095        2.8146144719       -4.0964259604
H                43.1894725802        0.7123939165       -5.3305564807
H                44.6067911027       -0.0617441269       -7.1942262512
H                43.7942255888        1.4661648112       -7.6351665838
H                45.4893473717        1.4660243366       -7.2032249876
H                45.4871347852       -0.3858232869       -4.9254311787
H                46.1319937860        1.2384374704       -4.6956421293
H                44.9187667511        0.6549893897       -3.5748695542
N                40.6935420737       -6.9252484801       -5.0396940926
C                40.9023705475       -5.4943945782       -4.9186314803
C                42.2898042904       -5.1348903240       -4.4166248030
O                42.9906818236       -4.2668298278       -5.0190962708
C                39.8107127007       -4.9172745664       -4.0217218265
H                39.9745065565       -7.3219388350       -4.4467538474
H                40.8541821493       -5.0538835938       -5.9350484146
H                39.9146049911       -3.8367210548       -3.9929585485
H                38.8230767850       -5.1791408657       -4.3982401308
H                39.9568790899       -5.3393919047       -3.0320639632
N                43.8494964053        5.7327166937      -19.6382724685
C                42.4752468672        5.3101320483      -19.8037583200
C                42.0555099576        5.4905511255      -21.2587570925
O                41.5065177070        4.5844358594      -21.8789343527
C                41.5255129924        6.0680072099      -18.8645160639
C                40.0701497717        5.7928981620      -19.2378476475
C                41.7696172636        5.6525511177      -17.4157219217
H                44.0712552558        6.3487178706      -18.8658299895
H                42.3967163658        4.2304972008      -19.6005656056
H                41.7377566917        7.1379342308      -18.9632388219
H                39.4111049539        6.2629813573      -18.5135575370
H                39.8414407765        6.1675653182      -20.2306064674
H                39.8788380031        4.7213104307      -19.2239891146
H                41.0940432553        6.1857748001      -16.7497692660
H                41.5959979521        4.5848352338      -17.2799882093
H                42.7878296312        5.8706848283      -17.1036777773
N                41.0159566563        2.3692632406      -23.6570594641
C                39.5985114570        2.1251626056      -23.8229357102
C                39.2265038127        1.8153875385      -25.2717547418
O                38.3308277358        1.0245147401      -25.5381112245
C                38.7852995410        3.3223790961      -23.3332936597
C                38.4931185168        3.2382785399      -21.8374134635
O                38.8971738791        2.3414312149      -21.1187410388
N                37.7615897241        4.2686480435      -21.3709562852
H                41.2737387354        3.0859683729      -22.9856121231
H                39.3006761604        1.2349099868      -23.2454913030
H                39.3397143747        4.2371693696      -23.5470177379
H                37.8309153129        3.3480903425      -23.8626747392
H                37.4061628967        4.2111557873      -20.4290401452
H                37.3294769338        4.9206158197      -22.0034774726
N                41.1442408447       -1.9031260670      -27.4239653487
C                40.8590617450       -3.0953428783      -26.6475129019
C                40.7360532824       -4.3188373988      -27.5837012720
O                39.6538160436       -4.7404111351      -27.9752151599
C                39.5832595895       -2.9501512302      -25.8150759694
C                39.7301292193       -1.8977795156      -24.7308420113
S                38.2774593622       -1.7699647576      -23.6241485096
C                38.5487646319       -3.2401490361      -22.5980644505
H                40.3638430990       -1.4219339623      -27.8504519441
H                41.7189012779       -3.2449486180      -25.9822396980
H                38.7443310172       -2.6948480833      -26.4665956027
H                39.3566925055       -3.9233353412      -25.3704487529
H                40.5954383449       -2.0913603799      -24.0988267314
H                39.8244209666       -0.9056359742      -25.1646653377
H                37.7147503371       -3.3174137371      -21.9056309250
H                38.5603388565       -4.1390680240      -23.2078478366
H                39.4812159809       -3.1226173694      -22.0548223625
H                32.1296388284       -5.8955209132      -20.5280314680
H                45.1081596197        4.0003956891       -6.5478124484
