 402 
 
N               -39.2207365852       61.4654732514       20.8442595254
C               -40.6400946744       61.7244749587       20.9250554346
C               -41.3554002395       60.4712347598       20.4533824301
O               -42.1623686198       59.7931482360       21.0682849325
C               -41.0922174571       62.8000848210       19.9653322594
C               -40.8579079123       64.1936348206       20.5053664954
C               -41.7199562053       65.1275787026       19.6729340412
C               -41.2215278180       64.3227155934       21.9742232373
H               -38.5789872356       62.1311142417       20.4285878402
H               -40.9392936499       61.9078903543       21.9595444163
H               -40.5563087405       62.6885366651       19.0227781339
H               -42.1628702109       62.6680986534       19.7825897009
H               -39.7980952657       64.4465533745       20.3936925453
H               -41.4783140017       66.1628689194       19.8976407825
H               -41.5826419249       64.9556965872       18.6103293366
H               -42.7591250000       64.9532731835       19.9318254141
H               -41.1987565563       65.3695071993       22.2720885860
H               -42.2256334711       63.9478988898       22.1545522177
H               -40.5184046047       63.7901357863       22.6061864788
N               -44.7624033568       59.8633911663       21.1134802394
C               -45.1417215948       61.0945226245       21.7507085066
C               -45.2415567902       62.2396918467       20.7560148882
O               -44.5574926198       62.3514400365       19.7486012995
C               -44.1245445083       61.4363122083       22.8538304513
C               -44.0292937741       60.3299982717       23.9135055668
C               -44.4920040908       62.7267697862       23.5582003887
C               -42.6062815672       60.0187239580       24.3398398837
H               -43.7725327527       59.6420691845       21.0978108794
H               -46.1349614100       60.9254293955       22.1847498586
H               -43.1568831648       61.5476164613       22.3606481552
H               -44.5780155262       60.6676734361       24.7960658086
H               -44.5028309266       59.4184670659       23.5617859176
H               -43.7654775440       62.8993846134       24.3483098991
H               -44.4643106571       63.5884671407       22.9052314665
H               -45.4750008380       62.6356033489       24.0116000872
H               -42.6130832898       59.2750667836       25.1282174888
H               -42.0200757420       59.6435767117       23.5067324558
H               -42.1147667110       60.9148885174       24.7151141765
N               -46.1753590880       63.1252623540       21.1460165376
C               -46.3173587661       64.4261542420       20.5580190142
C               -45.3577552203       65.4511937262       21.1683105998
O               -44.9812468873       65.4313819336       22.3279515827
C               -47.7480726537       64.9297756106       20.7754964792
C               -47.9593779197       66.3823384085       20.2451320169
O               -48.0729716811       66.5510351094       19.0170630800
O               -48.0104862869       67.2701102854       21.1220789753
H               -46.6029318210       63.0133946885       22.0521135949
H               -46.1205358423       64.3350491943       19.4879528025
H               -48.4487063070       64.2815996513       20.2493276117
H               -47.9826362102       64.9594609892       21.8396472780
N               -44.9969951021       66.4448072750       20.3499483627
C               -44.4478277076       67.6567982745       20.9118781434
C               -45.4835921750       68.7248592821       21.3285684545
O               -45.4191442416       69.1281221298       22.4787716701
C               -43.5218502113       68.2121485272       19.8285270891
C               -43.9126156242       67.4959112794       18.5226328804
C               -44.8454187302       66.3396016332       18.9083693775
H               -43.9190309320       67.4058705679       21.8361566136
H               -43.6359477703       69.2894880868       19.7163694123
H               -42.4880022137       68.0108541164       20.0946328834
H               -44.4210695728       68.1855662981       17.8494652526
H               -43.0266141576       67.1353554828       18.0074460021
H               -45.8106824223       66.4107664238       18.3947514557
H               -44.3999672181       65.3718725080       18.6689736390
N               -46.2625300986       69.2216244690       20.3397535806
C               -47.0814268411       70.4466584605       20.2602675895
C               -47.4182838923       71.0080638844       21.6377933970
O               -47.1624171409       72.1599660311       21.9506583268
C               -48.3926904979       70.2706631982       19.4398337653
C               -49.1130466136       71.5944488864       19.0440530107
O               -48.6435371660       72.4116120315       18.2642155544
N               -50.3467514413       71.7648668733       19.5494111871
H               -46.3718444106       68.6236904776       19.5315237218
H               -46.4824219255       71.2120640901       19.7425270110
H               -48.1229904535       69.7823277014       18.4984666609
H               -49.0755751284       69.6054460782       19.9678293356
H               -50.8683109171       72.5714334268       19.2422872547
H               -50.7573009635       71.1155292969       20.1939657378
N               -48.1046367681       70.1600699342       22.4157375540
C               -48.3906925329       70.5115197452       23.7885092626
C               -47.2055082818       70.2131937560       24.7360101784
O               -46.7987088058       71.0714622895       25.5177531146
C               -49.7159513242       69.8827491024       24.2850932603
C               -49.8957488096       68.3613479937       24.1020507872
C               -49.7467411170       67.4563411908       25.4049858327
O               -49.8454195592       68.0095348165       26.5199953427
O               -49.5853663194       66.2366361768       25.1965661137
H               -48.1639410736       69.1896326533       22.1267210644
H               -48.4965763873       71.6033621362       23.7994963405
H               -49.8052724467       70.0860217726       25.3570694116
H               -50.5250685502       70.3978851354       23.7696473791
H               -50.9162316095       68.1596368685       23.7671328196
H               -49.2376375271       67.9395446063       23.3379820810
N               -46.6979342065       68.9819627133       24.6574188586
C               -45.8573611552       68.3414843066       25.6507337452
C               -44.8594559301       69.3477033619       26.2035841140
O               -44.7037285533       69.5364618148       27.4122334939
C               -45.3049774782       67.0537797633       25.0256904455
C               -46.1645458515       65.8366002626       25.4469033278
C               -46.9156992372       65.1356199392       24.3204729719
C               -45.2984387444       64.8349474095       26.2018693091
H               -47.1543502104       68.3382003187       24.0290606307
H               -46.4930902937       68.0732751985       26.5128618874
H               -45.2921045170       67.1623134541       23.9442522517
H               -44.2771311410       66.9052184365       25.3578310607
H               -46.9435692444       66.1964210852       26.1320198330
H               -47.5727838022       64.3915747495       24.7639592906
H               -47.5466486917       65.8446672879       23.7889259604
H               -46.2276760292       64.6742797333       23.6369443238
H               -45.8918812480       63.9894570268       26.5365105519
H               -44.5047365145       64.4830848506       25.5534276914
H               -44.8543441101       65.3109263425       27.0732348159
N               -44.1830372669       69.9920704027       25.2770563152
C               -43.3847310731       71.1823159001       25.5076499552
C               -43.6062686570       71.8077957582       26.9150999737
O               -42.7176919919       71.8691305139       27.7550147635
C               -43.6699686096       72.1946934954       24.3722653193
C               -43.9281006302       71.5671038121       22.9798586440
C               -43.9725850041       72.6533694890       21.9002331620
C               -42.9114831555       70.5123846439       22.5413973573
H               -44.4593542731       69.8179478398       24.3202752043
H               -42.3264234143       70.8881066971       25.4748256180
H               -44.5532437602       72.7899275727       24.6103608934
H               -42.8235782652       72.8805107641       24.3088816225
H               -44.9253619943       71.1237128210       22.9954017897
H               -44.1998832348       72.1971454299       20.9392619503
H               -44.7559092985       73.3736759944       22.1162179678
H               -43.0177948856       73.1681709192       21.8204714581
H               -43.0891666199       70.2732280188       21.4989880710
H               -41.8996111526       70.9065505386       22.6206046234
H               -42.9658029842       69.5877344899       23.1052794694
N               -44.8299318938       72.3170631001       27.0926874648
C               -45.2474419836       73.2298758598       28.1330353670
C               -45.0714171825       72.7101715523       29.5464961915
O               -44.9963420767       73.4801622845       30.4982913574
C               -46.7600610995       73.4547017942       28.0155937536
C               -47.1097058996       74.0034786439       26.6405469142
O               -46.2492576674       74.3320216645       25.8424097861
N               -48.4237444676       74.1362859638       26.3976944032
H               -45.5164067682       72.1482801854       26.3674181432
H               -44.7112322000       74.1811245210       28.0271856597
H               -47.2704961694       72.4981396887       28.1500940693
H               -47.0998188913       74.1518321195       28.7825039815
H               -49.1177144855       73.7261472829       26.9981838475
H               -48.6945255705       74.4199936040       25.4688514485
N               -45.1242347188       71.3846377155       29.6371074726
C               -45.1994938419       70.6057242685       30.8539949212
C               -44.1025748705       70.9134445770       31.8814882904
O               -44.2597667276       70.7331842781       33.0794942745
C               -44.9990965114       69.1440962820       30.4261025065
O               -43.7252240651       68.9678735620       29.8703069381
H               -45.1128512686       70.8476737820       28.7737252806
H               -46.1702866548       70.7328514245       31.3475768416
H               -45.0790475193       68.5031975577       31.3023552289
H               -45.7835960845       68.8813820573       29.7084375920
H               -43.7787025233       69.1444463379       28.9183487311
N               -42.9765879204       71.3382576244       31.3054788361
C               -41.7283289890       71.5743348535       31.9883745012
C               -41.2928869871       73.0669972180       31.8981269999
O               -40.3526445210       73.4956691513       32.5505122988
C               -40.6666982921       70.6915418574       31.3232408294
C               -40.9724195025       69.2054658446       31.3876135746
S               -39.8469105028       68.2272192886       30.2866163766
C               -39.0749743072       69.4204736798       29.1703488291
H               -42.9319352427       71.3269231654       30.2923307622
H               -41.8658018894       71.3293677193       33.0476190882
H               -40.6561074903       70.9975052694       30.2733528215
H               -39.7013723798       70.9237652428       31.7659327185
H               -40.8372788376       68.7886779184       32.3811804318
H               -41.9824218971       68.9975820449       31.0416357408
H               -38.3402776482       68.8496969351       28.6109673002
H               -39.8044109714       69.8499326420       28.4887233857
H               -38.5747562254       70.1985790046       29.7375423663
N               -41.9952773788       73.8005984635       31.0004873719
C               -42.0833622473       75.2479709861       31.0585069469
C               -42.8581240688       75.6886075831       32.3312136078
O               -42.5965304151       76.7489325073       32.8811705238
C               -42.7315080352       75.7501340086       29.7726193330
H               -42.8299090091       73.3756236283       30.6188186726
H               -41.0730968400       75.6534021216       31.1688790285
H               -42.6837111212       76.8324741013       29.7202280168
H               -42.2072454352       75.3224873237       28.9219539415
H               -43.7736001774       75.4406867681       29.7416644688
N               -43.7651906333       74.7967648173       32.7764494557
C               -44.6214130746       74.9794616224       33.9384121658
C               -44.2533448749       74.1118572045       35.1941193960
O               -43.7360934856       74.6726950973       36.1584899980
C               -46.0727016029       74.7996688913       33.4899790240
H               -44.0557682806       74.0556452988       32.1499446582
H               -44.4452420775       76.0072220104       34.2798222446
H               -46.7552835956       74.9832821584       34.3126960827
H               -46.2744563563       75.5011995549       32.6851001577
H               -46.2246288895       73.7903892087       33.1145088685
N               -44.6458447048       72.8281511582       35.2439355588
C               -44.5678825595       72.0454038397       36.4779788786
C               -43.1146898633       71.6747818375       36.9539327220
O               -42.9128352745       71.7575191213       38.1772288803
C               -45.4064620969       70.7781268625       36.3303776994
O               -42.2966033836       71.2897416915       36.0899018264
H               -44.7749572660       72.2927137734       34.3945519244
H               -44.9649962059       72.6834562218       37.2770645559
H               -45.3500759146       70.2022324044       37.2494197101
H               -46.4426818718       71.0440574257       36.1333839634
H               -45.0266008039       70.1807946939       35.5049974392
N               -46.4995327202       58.4442599503       31.4782901044
C               -46.3656330685       59.6367847870       30.6958101506
C               -45.6708854804       60.7512687173       31.4970868792
O               -44.6168394394       61.2682749817       31.1487136760
C               -47.7560882981       60.0708656306       30.2777995914
C               -47.7523804746       61.5228758836       29.8094879845
C               -48.7516502511       61.7691845922       28.6879168513
N               -48.3333461285       61.0572436932       27.4780443102
C               -48.5592700674       61.4199951060       26.2103015744
N               -49.2610278456       62.5185424281       25.9113218649
N               -48.0448840745       60.6680049367       25.2211318263
H               -47.4357698473       58.1892953750       31.7566987671
H               -45.7286000386       59.4143729130       29.8279456705
H               -48.1230128963       59.3794854768       29.5176185413
H               -48.4215272077       59.9667864213       31.1362693880
H               -47.9928157291       62.1890517440       30.6316491204
H               -46.7604123101       61.7886769416       29.4378712367
H               -49.7496145601       61.4350074727       28.9833754391
H               -48.7836869922       62.8396660459       28.4751397985
H               -47.8017230951       60.2128217074       27.6380916284
H               -49.5319084194       63.1762337007       26.6249123611
H               -49.3595683579       62.8347864111       24.9611517664
H               -47.5950571865       59.7881437232       25.4169174702
H               -48.3146423304       60.8396430963       24.2665238917
N               -42.0333375383       63.2585629642       31.1499340963
C               -41.8008998064       64.6761785761       31.4368439962
C               -40.5497372711       64.8583879267       32.3040195821
O               -39.5993011933       65.5345391200       31.9276894096
C               -42.9440964252       65.3733604440       32.1898201849
C               -44.0987545070       65.8945031330       31.3260649842
C               -44.5465617394       64.8998049413       30.2526072222
C               -45.2481177847       66.2581884215       32.2742091097
H               -42.9715380535       62.8831416918       31.1854650640
H               -41.5915394481       65.2047370491       30.4969624120
H               -43.3268930074       64.6755532764       32.9406416644
H               -42.5211595037       66.2256724234       32.7224937898
H               -43.7554147880       66.7927307979       30.8086810216
H               -45.3896758601       65.3097568831       29.7012738941
H               -43.7449622571       64.7091342258       29.5460591865
H               -44.8565615270       63.9513297882       30.6873659754
H               -46.1151124944       66.6028192754       31.7157034053
H               -45.5372353789       65.3912783363       32.8588545255
H               -44.9415089012       67.0396895408       32.9652462667
N               -37.2101562765       64.0355598794       30.5230315962
C               -36.8636911677       64.8550818169       29.4003642800
C               -36.4329585093       66.2089395093       29.9590628046
O               -35.3383543797       66.6555628406       29.6300174924
C               -38.0204816212       64.9308717856       28.4202865130
C               -38.2285655696       63.7193666282       27.5092845840
C               -38.7664835828       63.9982258980       26.2458042612
C               -38.0287553575       62.3627788946       27.7899905125
C               -39.1391886300       63.0242129738       25.3318781028
C               -38.4221086309       61.3645885780       26.8850005979
C               -39.0216767459       61.6725485589       25.6532770199
O               -39.5320436178       60.7892219771       24.7461061080
H               -38.1884921330       63.9628964010       30.7907436302
H               -35.9723044678       64.4331890224       28.9169620808
H               -38.9344815987       65.1119774277       28.9933582975
H               -37.8650438705       65.7930495706       27.7696291224
H               -38.9179838645       65.0303034498       25.9648652927
H               -37.5988743008       62.0521168877       28.7292214230
H               -39.5687966976       63.2967632594       24.3827887709
H               -38.2871640622       60.3278096064       27.1598412774
H               -39.4276836578       59.8715361462       25.0329843886
N               -37.2433711822       66.8158267044       30.8271308349
C               -36.8469751556       68.0026511986       31.5945076700
C               -35.3312185490       67.8691180131       31.7957687654
O               -34.5613000345       68.7670110407       31.4775586677
C               -37.6906552933       68.1226671156       32.8895626527
C               -37.8729224596       69.5564614356       33.4114195889
C               -38.9747942590       69.7209695877       34.4829091815
N               -38.4585658597       69.4605015288       35.8173341940
C               -38.8056375755       70.0141119660       36.9852256492
N               -38.0371969626       69.7118738377       38.0510802112
N               -39.7898749264       70.8935429800       37.1251284850
H               -38.1189013115       66.3844504749       31.1092886015
H               -36.9887274668       68.9017642084       30.9808660394
H               -38.6710513770       67.7117283809       32.6428181407
H               -37.2608059263       67.4837875324       33.6607539233
H               -36.9319974580       69.9329254643       33.8132487688
H               -38.1314506491       70.1935972405       32.5677764363
H               -39.3540512014       70.7451273574       34.4671799991
H               -39.8054760465       69.0403979528       34.2719927627
H               -37.8233708782       68.6749293584       35.8781422313
H               -37.3325655353       68.9981976200       37.9590627343
H               -38.3149893640       69.9819562355       38.9788987785
H               -40.6250272463       70.9946645584       36.5161595260
H               -39.9461743843       71.2856451034       38.0412493039
N               -32.9153454851       67.0054733274       28.3113265770
C               -32.7705432847       68.3652163386       27.8187066099
C               -31.8030172159       69.2379976535       28.5956160600
O               -30.8449224970       69.7502932493       28.0296495301
C               -34.0026959555       69.2628808835       27.9018925959
C               -35.0399037634       69.1214145768       26.7982752647
C               -35.7993105760       70.4453402433       26.6742771732
C               -34.4117828051       68.7520829747       25.4663137609
H               -33.7649478425       66.7754721023       28.8199504938
H               -32.3552187409       68.3053433595       26.8089508971
H               -34.4729667839       69.1155085529       28.8751820760
H               -33.6205629515       70.2877890268       27.8713189026
H               -35.7391087602       68.3270009108       27.0854122974
H               -36.5972766832       70.3406907767       25.9449744358
H               -36.2276787974       70.7303185195       27.6323048555
H               -35.1321711710       71.2391193157       26.3481486207
H               -35.1824429157       68.5704612319       24.7224609315
H               -33.7872616199       69.5716322129       25.1202129627
H               -33.7939684938       67.8724410420       25.5431110702
N               -35.7748416373       74.8061556164       27.3900173033
C               -37.0869377698       74.8538097546       26.7678071931
C               -37.1412427348       75.8481257429       25.5831125065
O               -36.6594840715       75.5596508521       24.4940229389
C               -38.0587619123       75.0872816913       27.9413720102
C               -37.2134269452       75.7880888156       29.0033511087
C               -35.8580571580       75.1041445453       28.8222186934
H               -37.2621646522       73.8886278334       26.2811572447
H               -38.9527260901       75.6367219020       27.6587511926
H               -38.3659709805       74.1127539362       28.3247996858
H               -37.1052412144       76.8540894846       28.7997767701
H               -37.6018034667       75.6615353770       30.0099102461
H               -35.0505850405       75.7444843438       29.1663835408
H               -35.8266330186       74.1524693266       29.3665026488
N               -37.9446977347       76.9038164473       25.7830574014
C               -38.6472989710       77.7103626434       24.7915040997
C               -38.2264218309       77.3288325080       23.3549096083
O               -38.7629152235       76.4141033914       22.7376310271
C               -38.5335709327       79.1992511427       25.1604880475
C               -39.4186862515       79.5840652460       26.3623285669
O               -40.4722756861       79.0338125685       26.6322067627
N               -38.9660744049       80.6225668856       27.0736604949
H               -38.1112661584       77.1931118269       26.7342929448
H               -39.7132009145       77.4307643439       24.8695129048
H               -37.4937324082       79.4313514014       25.3944718936
H               -38.8722836819       79.8125504620       24.3225230375
H               -39.5231336602       80.9522209199       27.8478027419
H               -38.0536279687       81.0185902418       26.9258596951
N               -37.7054998444       73.9640586663       21.8486665901
C               -38.8990919870       73.2012734282       21.6461323443
C               -39.5298836276       73.5856414444       20.2975371986
O               -39.8489977041       72.7488089563       19.4647100782
C               -39.7576307388       73.3937638625       22.8800376157
C               -38.9187016895       73.3791112143       24.1749332446
C               -39.8727789848       73.1588861660       25.3489404487
C               -37.7809695327       72.3612790454       24.1970648767
H               -37.6692113154       74.6474549321       22.5887952087
H               -38.6187805572       72.1458563759       21.5296430878
H               -40.2657827004       74.3579413390       22.8240760487
H               -40.5182021446       72.6117938069       22.9122699658
H               -38.4989228627       74.3738405351       24.2947556107
H               -39.3583209596       73.2257424134       26.3007096704
H               -40.6558778686       73.9141136237       25.3350734150
H               -40.3392042361       72.1788651018       25.2865139354
H               -37.3839102665       72.2891526578       25.2052566651
H               -38.1433962551       71.3750187026       23.9125781784
H               -36.9572784608       72.6352241486       23.5519566344
N               -38.0642384874       71.7617924196       17.1715834501
C               -38.5947324848       70.4773572662       16.8074454521
C               -40.1293892125       70.5339121305       16.6134858227
O               -40.7715989484       69.4969255732       16.5516616900
C               -38.1352596449       69.3501895052       17.7370045056
C               -37.2417874767       68.3389220591       17.0295353112
S               -36.9970873829       66.8274154846       18.0078478275
C               -38.7132428173       66.2752377405       18.0784391518
H               -38.2226727962       72.1024932220       18.1119162751
H               -38.2170094992       70.2879040146       15.7903848271
H               -37.6100445476       69.7849524849       18.5871401953
H               -39.0388805982       68.8596381829       18.0998111979
H               -37.6739044330       68.0449004603       16.0718059219
H               -36.2475846927       68.7468329505       16.8554593869
H               -38.7317416623       65.3595622301       18.6541842170
H               -39.3150129072       67.0162495619       18.5956003522
H               -39.0958127373       66.1320471812       17.0742794207
N               -40.6321305138       71.7600791559       16.4153336064
C               -41.9695079770       72.1077142338       15.9836924195
C               -41.9789795555       73.0543013546       14.7551663618
O               -42.9915749307       73.6872023108       14.4957681785
C               -42.7557988805       72.7626831889       17.1235859773
H               -40.0758673055       72.5835144493       16.6048254228
H               -42.4674125495       71.1824391861       15.6660557831
H               -43.7821975633       72.9280779297       16.8141107557
H               -42.7161643058       72.1298281330       18.0040940472
H               -42.2989802091       73.7221526294       17.3498851553
H               -38.8879746627       61.3543223267       21.6730628645
H               -41.1828065707       60.1122570066       19.5361330648
H               -45.1590799560       59.1731651057       21.5332845521
H               -46.1828013512       57.7422399578       31.0126194374
H               -46.0799503596       61.0862060454       32.3458995268
H               -41.7559826358       63.0717463820       30.3143661322
H               -40.4949881097       64.4200066914       33.2011396531
H               -36.9530038206       63.1873879586       30.3665803029
H               -34.9514314099       67.0346016641       32.1949481640
H               -32.8918335080       66.4309891490       27.6189284865
H               -31.9464299951       69.3964860705       29.5725061237
H               -35.4464419625       73.9700182647       27.3349901952
H               -37.4941848373       77.8336018191       22.8977040443
H               -37.0208400406       73.4084180143       22.0289564092
H               -39.6918275012       74.5475634851       20.0773550706
H               -37.1690713066       71.7544111110       17.0787328460
H               -41.1621125480       73.1417115506       14.1850016930
