 513 
 
N                59.0912916962       66.1530027068      223.4930189220
C                59.2964044105       64.7674407548      223.1138730969
C                60.8100100267       64.6071229849      222.9471383715
O                61.4013193712       63.6301775649      223.4372264869
C                58.4259332560       64.2712850018      222.0106992569
C                58.2523273189       62.8974119483      221.9022289259
C                57.3298993085       62.2156027143      222.8506458660
O                56.3509331899       62.8186501979      223.1641180802
N                57.6347045745       60.8371432121      223.3825687543
H                58.5052780729       66.5975848513      222.8276295828
H                59.0682041959       64.1803779872      223.9480864028
H                57.5090999414       64.7028410159      222.1249902335
H                58.8495312875       64.6537371962      221.1390502296
H                57.9389538641       62.6074355111      220.9448003182
H                59.1980409715       62.3894058852      221.9919742779
H                58.4164497430       60.4756653762      223.0193794687
H                57.0690373483       60.4767379327      223.9708270459
N                61.5213823983       65.5585767694      222.3557587965
C                62.9526727677       65.4682839486      222.1324527247
C                63.7233860453       65.5723509781      223.4538812155
O                64.6989881181       64.8730847606      223.7114449048
C                63.4627291087       66.4688462163      221.1269690029
H                61.1178208054       66.3718598683      222.0297561260
H                63.1199464540       64.5170318314      221.7679258565
H                64.4462946565       66.3934044393      221.0360921692
H                62.9770189517       66.3164916824      220.2379117965
H                63.1959855125       67.4081438825      221.4761350795
N                63.3557356324       66.5337500341      224.2393273287
C                63.8688298356       66.6941426304      225.5861804195
C                63.8264833056       65.2965628138      226.4254087403
O                64.7376790218       64.9582424675      227.2184533477
C                63.2439070517       67.7443119750      226.3927536171
C                63.7193663888       68.1100684147      227.6948280017
C                62.6622912280       68.9108675694      228.5884829489
C                62.2841665517       70.2144177738      227.9812762095
N                61.3475437065       70.8202093324      228.7998353053
H                62.6837012679       67.1894815024      224.0614835219
H                64.8792780648       66.9132538633      225.5186008780
H                63.1889666146       68.6144532944      225.8135455357
H                62.2132960457       67.4757552873      226.5149949420
H                63.9876871443       67.2783122320      228.2348958039
H                64.5459504387       68.7228124168      227.6288840712
H                61.8482499779       68.3135526741      228.6858530591
H                63.0805197680       69.0768756557      229.5110409297
H                63.1156710915       70.7954101809      227.8349307629
H                61.8409053880       70.0460696145      227.0638236343
H                61.0873674217       71.7200694556      228.4654099479
H                60.5607857434       70.3464683569      228.9811697999
H                61.7600538067       71.0580476186      229.6904540896
N                62.7719021026       64.5404255529      226.2058159784
C                62.6400086805       63.3208328030      226.8529030088
C                63.6708498211       62.3652472831      226.3796695292
O                64.3579061236       61.7046208890      227.1095426355
C                61.2489009119       62.7810370089      226.7646455670
C                61.0980836030       61.3788193000      226.9586323331
C                60.8790963919       60.8274936997      228.0872062126
C                61.1578544305       60.4827370271      225.9315129147
C                60.6767818333       59.4274484447      228.2472945177
C                60.9439330093       59.1351781486      226.0959919940
C                60.7211188971       58.5507320163      227.3310776617
H                62.0457686799       64.7944429276      225.6250298077
H                62.7988668176       63.4413759479      227.8771004499
H                60.6195779303       63.2755657820      227.3514433269
H                60.9590110380       62.9687769349      225.7483770710
H                60.9410978045       61.3846042965      228.9495746070
H                61.2516637278       60.8190563320      224.9654703128
H                60.5585130825       59.0617325950      229.2269111413
H                60.9298847021       58.5073808068      225.2623357998
H                60.6304129860       57.5870789330      227.4202724021
N                63.8449928600       62.2615037003      225.0742934551
C                64.7740098800       61.2747655391      224.5025662761
C                66.1617558227       61.6378924735      224.9198349551
O                66.7827846188       60.8314707020      225.6223453877
C                64.6659917546       61.1120875768      223.0659206317
C                63.5175295988       60.3746434477      222.7807278060
C                62.3086610682       60.8679007736      222.3285295338
C                63.3255541343       58.9851365221      223.0112452606
N                61.3384909192       59.8875234589      222.1690746749
C                61.9137653900       58.6944377492      222.6149502893
C                64.1031993127       57.9496760729      223.4041129020
C                61.3751430075       57.4181265808      222.6705517481
C                63.5174091464       56.7111934154      223.4555069104
C                62.1979479854       56.4394398645      223.1367467217
H                63.3670341123       62.7600998020      224.4168470166
H                64.5123545103       60.3690890662      224.9269867595
H                64.6368895380       62.0388116600      222.5900333683
H                65.4920123935       60.6187395343      222.6807160138
H                62.1221931130       61.8345005744      222.0521552041
H                60.4709678827       59.9910646759      221.8348749977
H                65.0253648945       58.1049587310      223.6883716025
H                60.4233803899       57.2498688491      222.3871944221
H                64.0716140461       55.9247854145      223.8186045504
H                61.8128307207       55.5080735987      223.1997017383
N                66.6599194926       62.8235429569      224.6867872216
C                67.9381011825       63.1641171956      225.1256305611
C                68.1938275766       62.9798691190      226.7360347655
O                69.3407683359       62.7099897372      227.1894045780
C                68.3628352061       64.5224467928      224.6910740169
C                68.4156591906       64.8745384313      223.2852680165
C                69.3337125527       66.1735450303      223.2156218547
C                68.9239578595       63.7363109365      222.6192286668
H                66.1744920096       63.5323056531      224.2884225755
H                68.6293238177       62.4995396209      224.7245130679
H                67.7267510205       65.1975106775      225.1823556720
H                69.3146382967       64.7331291349      225.1086210571
H                67.5079771113       65.0805017030      222.8688877694
H                69.3705647464       66.4245191466      222.1960675892
H                68.8748202270       66.9146523784      223.7059825880
H                70.2393688654       65.9509778269      223.5391963373
H                69.0075206837       63.9199332128      221.5954578304
H                69.8857886432       63.5174815577      222.9440106731
H                68.3430334693       62.9175319534      222.7444987913
N                67.1110624801       63.1099124798      227.5162230854
C                67.1759098201       62.8385345318      228.8919478402
C                67.5586828061       61.4483948976      229.2850590594
O                68.5228856640       61.3296163093      230.0847744969
H                66.2476743007       63.3576545197      227.1775355473
H                67.8681798812       63.5235291455      229.3165712220
H                66.2750117850       63.0799145182      229.3430853895
N                66.9205238056       60.4174942785      228.6388658747
C                67.2112623718       59.0258089050      228.8483472895
C                68.7050306907       58.7123784259      228.5058122049
O                69.3296032943       57.6558477405      229.0265905215
C                66.4358297794       58.1623718957      228.1788242572
C                65.0785011989       58.1701818574      228.4632448717
C                64.1233024564       57.5262786985      227.5444215368
C                65.0038340239       57.5379425360      229.7958588944
H                66.2206824586       60.6008305032      228.0365602335
H                67.1525468713       58.9089773043      229.8848603191
H                66.4893224772       58.4340783051      227.1249015424
H                66.7773666738       57.2084937474      228.2014184286
H                64.6414431586       59.1294095454      228.5507167169
H                63.1573757585       57.5259294505      227.8660455090
H                64.1653959234       57.9951084508      226.6265723297
H                64.4192612150       56.5432686496      227.4013933545
H                64.0136773745       57.4177248891      230.1175984353
H                65.3958169400       56.5898818914      229.7214216005
H                65.4987068222       58.0702257257      230.4898114699
N                69.2618073037       59.5726568863      227.6425477371
C                70.5314126696       59.3035808855      226.9901138995
C                71.6454746732       59.0264310770      227.9358418250
O                72.5635588957       58.2544792845      227.5328057496
H                68.9052837498       60.4171703152      227.3401774517
H                70.4252227395       58.4511561274      226.4005746366
H                70.7973067259       60.0657689556      226.3443980101
N                71.5698161887       59.6648347241      229.1636243233
C                72.7309265432       59.8875054612      229.9779150425
C                74.0168577435       60.6264131437      229.1885430569
O                74.0079972686       60.8749987958      227.8990921523
O                75.0467889620       61.0269488331      229.8305691352
H                70.8113158915       60.0844766299      229.4653818903
H                72.5343060249       60.4675034215      230.7583562757
H                73.1202251464       58.9853459863      230.2586408106
N                55.1966542386       51.9146931566      225.9423983760
C                56.0395237736       50.9767309429      226.6030838570
C                55.4991803429       50.3077809814      227.8452477110
O                56.0639341645       49.4101281802      228.5238210772
C                57.4290757003       51.5356943860      226.8799103627
C                58.0739934116       52.0807632899      225.7213027447
C                58.7177566899       51.3279460569      224.7861805576
C                57.9771670329       53.3166968406      225.3914504262
C                59.2266214102       51.7880288561      223.6617942209
C                58.4738903064       53.8091944311      224.1915283569
C                59.1397779939       53.0927877544      223.3072040344
O                59.7552132319       53.6589743758      222.1536011003
H                55.1895885979       52.7740319081      226.3595740197
H                56.1396374591       50.1877792498      225.8919533501
H                57.3369195094       52.2566023425      227.5772760576
H                58.0202233121       50.7715845459      227.2463170323
H                58.8260595487       50.3083116299      224.9897561877
H                57.4544311962       53.9788496714      225.9744133120
H                59.7497301780       51.1621536180      223.0142236603
H                58.3787883354       54.8488252631      223.9977743389
H                59.5747509746       54.5454423827      222.1663877894
N                63.6123532976       62.4359171459      233.8346012339
C                64.0262691299       61.6574761449      232.6996553017
C                65.4429889059       61.1950253404      232.8247548218
O                65.7244599183       60.1357760038      232.3238478843
C                63.9220238872       62.4618423228      231.3733788749
C                62.6169663950       63.0875304516      230.9956743092
C                61.4027044173       62.4252445413      231.1188258818
C                62.5296647229       64.3121798157      230.4634935916
C                60.1592283732       62.9882475245      230.7431536594
C                61.3724090301       64.9413578765      230.0970419595
C                60.1628195196       64.3040645190      230.2345585264
O                59.0458534739       64.9014543531      229.8809811053
H                63.6264857125       63.4020069436      233.6256484035
H                63.3928351540       60.8758728532      232.6174401627
H                64.6289308357       63.2043389055      231.3911701893
H                64.1736649344       61.8080780098      230.6013793396
H                61.3972297884       61.4910541864      231.5185447375
H                63.4100868208       64.8338833962      230.2945601246
H                59.3125142879       62.5229371505      230.9025893664
H                61.3914418896       65.8686992762      229.6889378666
H                59.2288174569       65.7874330591      229.6661456228
N                66.3109751019       61.9773752623      233.4650723817
C                67.7005641757       61.6524170162      233.6766663281
C                67.8187563028       60.4531221608      234.4921289055
O                67.0238617713       60.3263933833      235.4020981368
C                68.4890713778       62.7641566979      234.1454348674
O                68.3760693313       63.9347061390      233.2198098143
H                66.0840637755       62.8264662532      233.8394392333
H                68.1223619691       61.3982565900      232.7201147098
H                68.1025719470       63.0960527178      235.0507846510
H                69.4733227551       62.5428947874      234.2723829982
H                68.9625146328       64.5782959407      233.5097993257
N                68.6931421615       59.4822282790      234.2319758422
C                68.6271793239       58.2022204662      235.0454117441
C                69.3561872001       58.3910576675      236.4321032019
O                68.9930971762       57.7005846112      237.3670163965
C                69.2567056774       57.2073909042      234.2400560890
C                69.3980839926       57.8480731874      232.9430845802
C                69.5827419254       59.3034611952      233.2211529980
H                67.6623169586       57.9267329868      235.2166926888
H                70.2507059301       57.0054561156      234.6183125832
H                68.7927922691       56.3289600356      234.1913880713
H                70.2589626433       57.4681409646      232.4166438496
H                68.6111102400       57.6273147159      232.3501686735
H                70.5435616469       59.5582896033      233.4022706880
H                69.2948368603       59.8421274275      232.3444598403
N                66.7776989517       58.1149878539      239.1761376055
C                65.8586099309       56.9923434597      239.2305000291
C                66.0072357049       56.2794008778      240.5487816889
O                64.9939006308       56.0133492168      241.1825722193
C                65.9515275658       56.0766264286      238.0796804333
C                65.6141299203       56.6410927500      236.8576014189
C                65.0856415323       57.8062175134      236.6475419991
C                65.9091359868       56.1520033006      235.5120894465
N                64.9067178913       58.0526616718      235.2493311895
C                65.4235675559       57.1238289700      234.5823407363
C                66.4754531320       54.9891149490      235.0162629034
C                65.3255886755       56.8598917528      233.3084721546
C                66.4344109609       54.7683165670      233.8565462695
C                65.8136516398       55.6824573702      233.0080290982
H                67.4742026449       57.9926111929      238.5195551228
H                64.9089253020       57.3803531817      239.2116932136
H                66.9978450426       55.7735246590      238.0342503893
H                65.4447485931       55.2242938829      238.2375512721
H                64.8039441042       58.4698606792      237.3560695642
H                64.4685678687       58.8461839903      234.9337108312
H                66.8686596250       54.3057801513      235.6592458316
H                64.9983891077       57.4928567198      232.6206740416
H                66.8288493923       53.9215300028      233.4526065437
H                65.9071684154       55.4595693376      231.9443467524
N                60.1317992097       54.1886194249      231.0144631859
C                61.4095190060       54.7647688882      230.8407514801
C                62.5445541003       53.7310037762      230.4406538794
O                63.2945559779       53.9437611196      229.3956963766
C                61.9049993455       55.5757298030      231.9616050958
C                60.8970093040       56.6022903580      232.4465771889
C                61.4187168998       57.2067715033      233.7423269563
C                60.8177485444       57.5614751556      231.4439376427
H                59.6881444494       54.4783916367      231.8066476903
H                61.3287830829       55.3633896309      229.9987534696
H                62.0562815552       54.9178640554      232.7718008305
H                62.7784878486       56.0282378497      231.7643389694
H                59.9772197308       56.2297645347      232.6380604354
H                60.7614039914       57.9049489250      234.0844609503
H                61.5174970739       56.4653442670      234.4425979567
H                62.3289598509       57.6383952625      233.5814652747
H                60.1930059357       58.3515426493      231.7294006554
H                61.7236243124       57.9732580547      231.2102466081
H                60.4077917027       57.1706111690      230.5838009645
N                61.9594955661       51.9825135316      226.9286245487
C                62.2137407678       52.9464667275      225.9991877189
C                63.6706245454       53.1813101830      225.8308784402
O                64.0561785960       53.3012804422      224.6320220170
C                61.4685941360       54.2077823925      226.3601882839
H                61.4240886211       52.3424849186      227.7217714356
H                61.8528348457       52.5909161561      225.1084656427
H                61.6405120840       54.9182923291      225.5843408809
H                60.4772535972       54.0694856078      226.4170833605
H                61.8458827298       54.6253705709      227.2062790403
N                64.4155527659       53.4458256394      226.9128185444
C                65.8706077941       53.4801392460      226.8462381210
C                66.5090323990       52.1591554228      226.0444970114
O                67.4459342201       52.2583510784      225.1652634120
C                66.5636352618       53.8117772092      228.0730860852
C                67.9595714266       54.0710466572      228.0744072857
C                68.8447816733       54.6917348743      229.4078819459
N                69.1001946296       53.8281386262      230.6421347978
C                68.0335412805       53.2444697766      231.3497506280
N                66.6763315723       53.2750813423      230.8822651494
N                68.2145812172       52.7249953773      232.5843360374
H                64.1175030386       53.4313641721      227.8088026097
H                66.1247508896       54.2022865038      226.1520966643
H                66.0853837763       54.5203651977      228.5429833955
H                66.4070384134       52.8863657822      228.6908047296
H                68.5382055508       53.1091054567      227.9298670688
H                68.2652532381       54.6275955396      227.3188670310
H                69.7165055519       54.8980855511      229.1100183404
H                68.1962962879       55.4260262410      229.6448128264
H                69.8429085483       53.5553944417      230.9453683483
H                66.4348057598       53.7745054545      230.1057500436
H                65.9117321836       53.1152506371      231.4779216471
H                69.0273386878       52.7082647367      232.9242635489
H                67.4079285772       52.4905676656      233.1072842387
N                65.3588081345       51.7543933855      221.9275067375
C                65.6544805342       52.7175111348      220.9215925110
C                67.0548142429       53.2986568901      221.0958830545
O                67.7670866260       53.1095268703      222.1324504814
C                64.7133417929       53.8625289261      220.7591519498
C                63.2508093397       53.5403933655      220.7510201925
C                62.7995753344       52.9244171968      219.4773885784
O                63.4825435119       53.1995373600      218.4320448401
N                61.6413556043       52.1536559762      219.5722794085
H                65.5458856396       52.0459786186      222.8300905843
H                65.6044328224       52.1241916341      220.0509890367
H                64.8363050275       54.4505601882      221.6227125543
H                64.9007774714       54.3907531393      219.9528825041
H                62.9887270053       52.9078832557      221.5319438406
H                62.6844102306       54.4059124010      220.8788378072
H                61.2257249606       52.0011169907      220.3818940342
H                61.3798113721       51.6952808734      218.7868224225
N                68.7502222261       56.5759651230      221.7092314544
C                68.2720344670       57.6880870540      222.4052823200
C                68.3246946817       58.9767685552      221.4224043380
O                67.3574212016       59.6539765882      221.1811191312
C                69.1500678916       57.8637439197      223.5982340365
O                68.3068788473       58.4433643811      224.4141361321
C                70.5341079780       58.6839438520      223.3750115952
H                69.4766211059       56.1101778451      222.1014478348
H                67.3218844997       57.6298636387      222.6438367072
H                69.4670494846       56.9682017419      223.9462242481
H                68.8375837563       58.9135052000      225.1560484332
H                71.0356030939       58.7046354675      224.2365047875
H                71.0512790725       58.1974002590      222.6531496197
H                70.2903051886       59.6168123236      223.0608962804
N                69.4721352242       59.2677695944      220.8266384267
C                69.7051463390       60.4857642640      220.0858028920
C                68.9866932080       60.4834880314      218.7665881440
O                68.5408196683       61.5067995713      218.3276942416
C                71.2210405016       60.7905784699      220.0095245109
O                72.0025247134       59.4378238488      220.0121497342
H                70.2546997812       58.6891702901      220.8502724580
H                69.3005268703       61.2730232413      220.5948527780
H                71.4072800099       61.3326947720      219.1828698967
H                71.5290602266       61.2422657606      220.8542889049
H                72.7752150384       59.6820450145      219.5162002019
N                66.1530027068       59.0912916962      218.0449754628
C                64.7674407548       59.2964044105      218.4241212879
C                64.6071229849       60.8100100267      218.5908560133
O                63.6301775649       61.4013193712      218.1007678979
C                64.2712850018       58.4259332560      219.5272951279
C                62.8974119483       58.2523273189      219.6357654589
C                62.2156027143       57.3298993085      218.6873485188
O                62.8186501979       56.3509331899      218.3738763046
N                60.8371432121       57.6347045745      218.1554256305
H                66.5975848513       58.5052780729      218.7103648020
H                64.1803779872       59.0682041959      217.5899079820
H                64.7028410159       57.5090999414      219.4130041513
H                64.6537371962       58.8495312875      220.3989441552
H                62.6074355111       57.9389538641      220.5931940665
H                62.3894058852       59.1980409715      219.5460201069
H                60.4756653762       58.4164497430      218.5186149160
H                60.4767379327       57.0690373483      217.5671673389
N                65.5585767694       61.5213823983      219.1822355882
C                65.4682839486       62.9526727677      219.4055416601
C                65.5723509781       63.7233860453      218.0841131693
O                64.8730847606       64.6989881181      217.8265494800
C                66.4688462163       63.4627291087      220.4110253819
H                66.3718598683       61.1178208054      219.5082382588
H                64.5170318314       63.1199464540      219.7700685282
H                66.3934044393       64.4462946565      220.5019022156
H                66.3164916824       62.9770189517      221.3000825883
H                67.4081438825       63.1959855125      220.0618593052
N                62.2615037003       63.8449928600      216.4637009297
C                61.2747655391       64.7740098800      217.0354281087
C                61.6378924735       66.1617558227      216.6181594297
O                60.8314707020       66.7827846188      215.9156489970
C                61.1120875768       64.6659917546      218.4720737530
C                60.3746434477       63.5175295988      218.7572665788
C                60.8679007736       62.3086610682      219.2094648509
C                58.9851365221       63.3255541343      218.5267491241
N                59.8875234589       61.3384909192      219.3689197098
C                58.6944377492       61.9137653900      218.9230440955
C                57.9496760729       64.1031993127      218.1338814828
C                57.4181265808       61.3751430075      218.8674426367
C                56.7111934154       63.5174091464      218.0824874744
C                56.4394398645       62.1979479854      218.4012476630
H                62.7600998020       63.3670341123      217.1211473682
H                60.3690890662       64.5123545103      216.6110076253
H                62.0388116600       64.6368895380      218.9479610165
H                60.6187395343       65.4920123935      218.8572783709
H                61.8345005744       62.1221931130      219.4858391807
H                59.9910646759       60.4709678827      219.7031193871
H                58.1049587310       65.0253648945      217.8496227822
H                57.2498688491       60.4233803899      219.1507999627
H                55.9247854145       64.0716140461      217.7193898344
H                55.5080735987       61.8128307207      218.3382926464
N                71.9604536251       68.1240770894      216.8512071631
C                71.6198793864       66.8458953995      216.4123638237
C                71.8041274630       66.5901690055      214.8019596193
O                72.0740068449       65.4432282462      214.3485898068
C                70.2615497893       66.4211613760      216.8469203679
C                69.9094581507       66.3683373914      218.2527263683
C                68.6104515517       65.4502840294      218.3223725300
C                71.0476856456       65.8600387225      218.9187657179
H                71.2516909290       68.6095045724      217.2495718092
H                72.2844569611       66.1546727644      216.8134813169
H                69.5864859045       67.0572455615      216.3556387127
H                70.0508674472       65.4693582853      216.4293733276
H                69.7034948790       67.2760194708      218.6691066154
H                68.3594774354       65.4134318356      219.3419267956
H                67.8693442036       65.9091763550      217.8320117967
H                68.8330187551       64.5446277166      217.9987980475
H                70.8640633693       65.7764758984      219.9425365543
H                71.2665150243       64.8982079389      218.5939837117
H                71.8664646286       66.4409631127      218.7934955934
N                75.5162269876       65.3118613579      220.7113559581
C                74.2982323180       65.0788502430      221.4521914928
C                74.3005085506       65.7973033740      222.7714062407
O                73.2771970107       66.2431769137      223.2103001432
C                73.9934181121       63.5629560805      221.5284698739
O                75.3461727332       62.7814718686      221.5258446506
H                76.0948262919       64.5292968008      220.6877219268
H                73.5109733407       65.4834697117      220.9431416068
H                73.4513018100       63.3767165721      222.3551244881
H                73.5417308214       63.2549363555      220.6837054799
H                75.1019515675       62.0087815436      222.0217941829
N                75.4150245963       65.9368014389      223.4629426261
C                75.5449961593       66.5770591507      224.7208244848
C                75.2305837834       68.0355856860      224.5485908146
O                74.5553870433       68.6521402029      225.3611345873
C                76.9110952932       66.4184071803      225.4577016126
C                77.2803650840       64.9963539377      225.8727089886
C                76.3356783226       64.3841087483      226.8993901050
O                75.9551169376       65.0546631861      227.9838880420
O                75.9076362954       63.2392634391      226.6123957193
H                76.2797476456       65.5319670591      223.1462815599
H                74.8500096966       66.1158737206      225.3421304772
H                77.6291453798       66.7500221422      224.7950190390
H                76.9005052798       66.9899754728      226.2800774090
H                77.2362952850       64.3916449881      225.0191655183
H                78.2215533569       64.9872075978      226.2250896616
N                73.2626141837       69.2254198126      222.3557587965
C                71.8313238143       69.3157126334      222.1324527247
C                71.0606105367       69.2116456039      223.4538812155
O                70.0850084639       69.9109118214      223.7114449048
C                71.3212674733       68.3151503657      221.1269690029
H                73.6661757767       68.4121367137      222.0297561260
H                71.6640501280       70.2669647507      221.7679258565
H                70.3377019255       68.3905921428      221.0360921692
H                71.8069776303       68.4675048996      220.2379117965
H                71.5880110695       67.3758526995      221.4761350795
N                71.4282609496       68.2502465479      224.2393273287
C                70.9151667465       68.0898539517      225.5861804195
C                70.9575132765       69.4874337682      226.4254087403
O                70.0463175602       69.8257541146      227.2184533477
C                71.5400895304       67.0396846070      226.3927536171
C                71.0646301932       66.6739281673      227.6948280017
C                72.1217053540       65.8731290126      228.5884829489
C                72.4998300303       64.5695788083      227.9812762095
N                73.4364528755       63.9637872496      228.7998353053
H                72.1002953141       67.5945150796      224.0614835219
H                69.9047185173       67.8707427188      225.5186008780
H                71.5950299675       66.1695432876      225.8135455357
H                72.5707005364       67.3082412948      226.5149949420
H                70.7963094377       67.5056843500      228.2348958039
H                70.2380461433       66.0611841653      227.6288840712
H                72.9357466041       66.4704439079      228.6858530591
H                71.7034768140       65.7071209263      229.5110409297
H                71.6683254906       63.9885864011      227.8349307629
H                72.9430911941       64.7379269675      227.0638236343
H                73.6966291603       63.0639271264      228.4654099479
H                74.2232108386       64.4375282251      228.9811697999
H                73.0239427754       63.7259489634      229.6904540896
N                68.1240770894       71.9604536251      224.6867872216
C                66.8458953995       71.6198793864      225.1256305611
C                66.5901690055       71.8041274630      226.7360347655
O                65.4432282462       72.0740068449      227.1894045780
C                66.4211613760       70.2615497893      224.6910740169
C                66.3683373914       69.9094581507      223.2852680165
C                65.4502840294       68.6104515517      223.2156218547
C                65.8600387225       71.0476856456      222.6192286668
H                68.6095045724       71.2516909290      224.2884225755
H                66.1546727644       72.2844569611      224.7245130679
H                67.0572455615       69.5864859045      225.1823556720
H                65.4693582853       70.0508674472      225.1086210571
H                67.2760194708       69.7034948790      222.8688877694
H                65.4134318356       68.3594774354      222.1960675892
H                65.9091763550       67.8693442036      223.7059825880
H                64.5446277166       68.8330187551      223.5391963373
H                65.7764758984       70.8640633693      221.5954578304
H                64.8982079389       71.2665150243      222.9440106731
H                66.4409631127       71.8664646286      222.7444987913
H                58.7024431006       66.1881740726      224.3039194983
H                55.4782417994       52.0267975400      225.0949663417
H                54.6041623316       50.5706383221      228.2055930701
H                62.7749605391       62.2037592851      234.0688577078
H                70.0921162888       59.0620118077      236.5228165867
H                66.3255449842       58.8633675047      238.9628662103
H                66.9166863164       56.0356062288      240.8856255018
H                59.6065334916       54.4067481070      230.3169563376
H                62.6889113898       52.9089642926      230.9914824012
H                61.4852275057       51.3178434997      226.5500964052
H                66.1639798205       51.2410916758      226.2396832672
H                64.4837008880       51.5464957565      221.8964280795
H                67.4564869199       53.8606606619      220.3728264723
H                68.0902853651       55.9704706445      221.6205760772
H                68.8809917852       59.6300140820      218.2562848745
H                66.1881740726       58.7024431006      217.2340748864
H                66.2309627194       63.4364742669      217.3884751847
H                61.8399584178       63.2369298845      215.9512958235
H                62.5089555662       66.5589586228      216.9070867979
H                72.6132537660       68.0659319185      217.4680305699
H                71.7027233480       67.3503104737      214.1601635818
H                75.3140689229       65.5318069061      219.8623824175
H                75.5761918600       68.5308499365      223.7515535635
H                73.6753186134       69.9082166214      221.9392692150
H                71.7308723846       70.1121653874      226.3175843750
H                68.0659319185       72.6132537660      224.0699638149
H                67.3503104737       71.7027233480      227.3778308030
