 280 
 
N                59.0310322285       93.8547119618      109.7039621609
C                58.8514324767       94.4201787144      111.0170952749
C                59.6376372756       95.7084419375      111.2477260716
O                59.3615560929       96.3309924583      112.2800530824
C                59.3250468760       93.3237278626      112.0255755476
H                59.7008405720       93.3846075536      109.5078277382
H                57.9773126228       94.5828737716      111.1332545889
H                59.2075794243       93.6697905844      112.9370679278
H                58.7527196815       92.5610306359      111.9909975468
H                60.2226721489       93.0567391465      111.8626144548
N                60.6454241544       96.0198258560      110.4151965095
C                61.3045230532       97.3465267804      110.4924681160
C                60.2572360047       98.4858119133      110.4777516317
O                59.2159630434       98.3351991961      109.7659323485
C                62.2409094711       97.4514931797      109.3003257973
H                60.8385215596       95.4987206189      109.7742914026
H                61.7915901999       97.3343591751      111.2722134481
H                62.7091231890       98.3046653218      109.3556640827
H                62.9390894073       96.7939168712      109.3503692328
H                61.7905293896       97.3647337932      108.4703557709
N                60.5607099919       99.5588854761      111.1576661120
C                59.6583060818      100.6519667799      111.3788204598
C                59.2220952126      101.3352846785      110.1632012401
O                58.1131020935      101.6442531752      109.9011380911
C                60.1130096417      101.5546658191      112.4785120151
C                60.0149487554      101.1354893775      113.8916101828
C                60.8760706418       99.9524903017      114.2182719759
O                61.6463936407       99.4336034052      113.4312296021
N                60.7371753714       99.4681157795      115.4483429897
H                61.4281716066       99.6776360719      111.5829352025
H                58.7518261303      100.1809630528      111.7877305173
H                61.1581917600      101.7823744616      112.2789464019
H                59.6507325549      102.5172967689      112.3390071057
H                60.2157762069      101.9358584094      114.5535219246
H                58.9846621336      100.9034220296      114.0854066902
H                60.1235804799       99.8564284439      116.1189896029
H                61.2444751820       98.6759120950      115.7644222405
N                60.2608388073      101.5962623048      109.2543429380
C                60.0859327582      102.0498105038      107.9479090851
C                60.3414130229      100.9602629708      106.9260949290
O                61.3666191511      100.8960362825      106.2496033853
C                60.7812310127      103.3129925927      107.6820466553
C                59.9916260593      104.5527645724      107.7993649300
O                59.0007197665      104.6119683283      108.4298316917
N                60.4504164305      105.6062619938      107.1256891853
H                61.1621696837      101.4569631499      109.4952397009
H                59.0287759150      102.3394813795      107.8342593523
H                61.6502693961      103.3575187190      108.3210493463
H                61.2524431491      103.2550082988      106.6970045921
H                59.9893300789      106.4869161652      107.1458040287
H                61.2827096268      105.5979623968      106.5923676556
N                59.3664902093       99.9970079245      106.8447278755
C                59.3569303236       98.9960328631      105.8611393990
C                59.0499059558       99.6831902895      104.5991480594
O                57.9948379603      100.2832898207      104.4747038278
C                58.4771193551       97.8391805433      106.0420065915
S                58.2007184479       96.6986269517      104.6045233040
H                58.6612245153       99.9098161489      107.5117182666
H                60.3520411876       98.5590179373      105.8205835331
H                58.7930350440       97.2646327776      106.9232194911
H                57.5170679111       98.2248179876      106.3801638065
H                57.8009103900       95.5828514049      104.7921357930
N                65.6244918308       88.0894175026      113.2316448417
C                66.3976556332       88.4730304465      114.3483009223
C                66.8367926782       87.2956563943      115.1624895595
O                66.1201233109       86.4055693414      115.4312496915
C                65.7286362721       89.5069940166      115.1893635683
S                66.7035645496       90.3534685277      116.5363375639
H                64.7262557218       88.3880389152      113.2314209683
H                67.2854414934       88.9520109945      113.9406577965
H                65.3001941453       90.2761988162      114.5665182565
H                64.8603411925       89.0523957420      115.6303633300
N                68.0669080891       87.3219375185      115.6757100370
C                68.5247637689       86.4628687654      116.6846375585
C                68.2316893357       86.9576089098      118.1179334231
O                67.9180033904       86.1923471830      119.0324949955
C                69.9255639561       86.0607506130      116.4360624630
C                70.2466541452       85.4988455510      115.0991394022
O                69.3588750895       84.7669162233      114.5450094319
O                71.3028051258       85.7604050704      114.5666551852
H                68.7387058948       87.9805690229      115.3953148445
H                67.9067248658       85.5815241993      116.6067818228
H                70.5574409917       86.8988288867      116.6456132642
H                70.2408453728       85.3503691710      117.2121030787
N                68.3345425703       88.2652392505      118.3327541438
C                68.3165465660       88.9086281018      119.6650786595
C                67.1236389723       88.6097198079      120.5139727003
O                67.1295300611       89.0876392967      121.6434451255
H                68.3502654820       88.8579008428      117.6388018899
H                69.1373463640       88.7799415161      119.9628694526
H                68.3513071729       89.9128912518      119.4491551227
N                62.6107286943       90.4247790579      109.1046467551
C                62.7611972667       91.7923357585      108.2689611492
C                63.1110762813       91.4946757948      106.8519698553
O                63.8082937657       90.4739238167      106.6085800969
C                63.8725071521       92.5569661577      108.9133506103
C                63.5921707028       92.7603694176      110.3568470070
C                64.2848458020       91.8669847705      111.2000543189
C                62.6878766919       93.6320740433      110.9440364199
C                64.1031847731       91.9773795000      112.6306740119
C                62.4429889629       93.8292939171      112.2900176848
C                63.1865204086       92.9327085361      113.1566130162
H                63.2942032347       90.1252099738      109.1062396148
H                61.8541965570       92.3360358897      108.3101629119
H                64.6878084213       92.1922016045      108.7509841002
H                63.7502103239       93.5074262071      108.5471097713
H                64.8022746101       91.2959710527      110.9240965000
H                62.2713005361       94.1931397965      110.3243246077
H                64.5390743877       91.4902726322      113.1927593556
H                61.9673202350       94.3745500168      112.5697173873
H                63.0180810628       93.0531366369      114.0112474129
N                75.3618580030       86.6501318784      112.6051628191
C                74.1458366659       86.8715820554      113.2667987658
C                73.5222007488       88.2455626746      112.9706505199
O                74.1105184447       89.1078771612      112.4740438028
C                74.2408784643       86.5682870102      114.7071085333
C                74.5548484446       85.1814082373      115.1019899266
O                74.2643234351       84.3219463035      114.2327428223
O                75.0829395031       84.9650443818      116.2009341327
H                76.1105575381       86.5682604500      113.1959928635
H                73.4599153971       86.1242334903      112.8559513862
H                74.9533958915       87.2415921172      115.1447115907
H                73.3180072205       86.8673561088      115.2168194563
N                72.3099627620       88.3855780471      113.3751673132
C                71.5348332958       89.6021102488      113.1496477351
C                70.7295240750       89.9785505718      114.3903781766
O                69.6038999516       89.2806667958      114.6316883023
C                70.8232667386       89.8658537091      111.8087126711
C                69.8737179706       90.9531745383      111.8355588076
C                70.5566336281       92.2155754329      111.3930789222
C                68.6145536168       91.0636897096      112.2874090947
C                69.8591333230       93.4302630297      111.4197548929
C                67.9117677130       92.2617653954      112.3157248447
C                68.5475206610       93.3762371847      111.8928744502
O                67.9424824733       94.6311071186      111.8705043769
H                71.7133563767       87.6907114166      113.6970229878
H                72.3464938885       90.3396548421      113.0440762681
H                71.2441255840       89.6416820847      111.1162649757
H                70.1803146991       88.9827137887      111.8120890140
H                71.3120994978       92.0496798247      111.1915908570
H                68.2758098482       90.3559124146      112.5879789997
H                70.2784851878       94.1749246200      111.1305299769
H                67.0196684162       92.2501265944      112.6173182651
H                67.1356202811       94.5044861847      112.1767618149
N                70.9972441683       90.9817700452      115.1023160084
C                70.1644465124       91.4755036225      116.2059934248
C                69.5023412182       92.6857329522      115.7107166873
O                70.2030456644       93.6135139077      115.1345761856
C                71.2282455293       91.8968623835      117.3527765982
C                72.0201439332       90.5480739205      117.7507963760
C                70.3362453534       92.3088699672      118.5458237945
C                73.3757182215       90.5249936567      116.9321595650
H                71.7465811234       91.4252290358      114.9144826042
H                69.7302507668       90.9629337760      116.4839933194
H                71.8760172581       92.6717417211      117.0932428094
H                72.3121721811       90.7364379496      118.6657026731
H                71.5447546212       89.8304258696      117.6182650435
H                70.9310277702       92.4942740142      119.3137825415
H                69.8879087571       93.1186532077      118.3596908649
H                69.7240797129       91.6289173144      118.8128796552
H                73.8140788223       89.6858643126      117.2863941010
H                73.2266107528       90.4212517973      116.0491332506
H                73.9189163770       91.3041615894      117.1604418822
N                68.3325639702       92.9251284872      115.8310430420
C                67.6823634741       94.1342256316      115.2087441135
C                67.8213780674       95.2509772665      116.1351544351
O                68.6117704940       95.1743734750      117.1496158497
C                66.1246605385       93.7705232547      115.0487171853
S                65.0667660954       93.4994539830      116.6311196577
H                67.7861109796       92.3251192062      116.2330673098
H                67.8862677309       94.1719511485      114.4643122721
H                65.7123424743       94.4842913216      114.6054054596
H                66.0148076362       92.9996056399      114.4582659175
N                67.1100895572       96.3193701784      115.9545764958
C                67.2284475481       97.5229311194      116.7024510954
C                66.7295750189       97.3783476217      118.0808969827
O                67.4217149082       97.6311254201      119.0934619375
C                66.7672838581       98.7142779638      115.9104387538
C                65.3595818203       98.6411204892      115.5739041213
C                67.5960082621       98.9652499312      114.7294335897
C                64.3245256106       98.9623724587      116.4834817559
H                66.4569267523       96.3716460250      115.2606252559
H                68.3146007283       97.6866241865      116.8482792554
H                66.8435674678       99.5584709393      116.5840560091
H                65.1762766053       99.2192478226      114.6586043463
H                65.1566270610       97.6336646523      115.2041240958
H                67.2905904686       99.7976829779      114.1421360087
H                68.6364607708       99.1230257040      114.9422379691
H                67.5781294583       98.1197290103      114.0563841333
H                63.3206528380       98.8497919995      116.0977226775
H                64.3667883003       98.3720943448      117.3513806305
H                64.3854755650       99.9792285120      116.7984615104
N                65.5067886652       96.8098557085      118.2331218548
C                64.8549488348       96.5191885616      119.4885521976
C                65.6569459110       95.6026867129      120.4057550386
O                65.8164065081       95.7397194899      121.5745725502
C                63.4636169168       96.1830509180      119.3501708737
C                62.5356248752       97.2847525048      118.9688660136
O                62.8169198429       98.4458156938      119.0854998901
N                61.3418009028       96.9312455747      118.4624310402
H                65.0088467963       96.4807551992      117.4847902768
H                64.8930860141       97.4959434071      120.0146569887
H                63.3898284029       95.3765223422      118.6306580543
H                63.1001042873       95.7091084513      120.2480550799
H                60.6734126399       97.5945047167      118.1873950824
H                61.0801177877       95.9861006110      118.3410237974
N                66.2140815519       94.5366481014      119.8303475969
C                66.9252308763       93.5378943198      120.4586790438
C                68.3480465046       93.8506248321      120.7810096216
O                69.0425813951       93.0981296760      121.4177121959
C                66.8150678250       92.2493528729      119.7282080514
S                65.2258964892       91.6878578273      119.4158904798
H                66.1413362878       94.3946912564      118.8307182256
H                66.4286487575       93.4094994582      121.4094344952
H                67.3501388171       92.3481770952      118.7998186607
H                67.3823076798       91.4809285905      120.2410521372
N                68.8360486706       94.9898349300      120.2670902680
C                70.1436243519       95.4863609941      120.5307992435
C                70.2021368930       96.0902902125      121.9514901487
O                69.0840263570       96.2888073672      122.5806411940
C                70.6421923944       96.3598169926      119.5336140631
O                71.3229396641       96.3989574881      122.4676586159
H                68.3302464568       95.5663048182      119.6947395770
H                70.7972462083       94.6235395021      120.5472325625
H                71.6275397081       96.7107024871      119.7096622315
H                70.6473234606       95.9299270460      118.5501104915
H                70.0273717802       97.2413309094      119.4470379858
Zn               64.6459369096       91.3863021368      117.3205349139
N                50.7981628457       98.7771839822      116.0566522416
C                51.6757171012       97.9380516345      116.7257439646
C                51.1202757366       97.3617109917      117.9666373846
O                51.6618444962       97.6261602269      119.0177476196
C                52.9946457916       98.5794590695      116.8868245734
C                54.0084469371       98.5638797548      115.7800203282
C                55.3118557109       99.1311740532      116.0268448508
N                56.3923372644       98.5496245227      115.3730525782
C                57.2106522958       97.6305912664      115.8529469537
N                57.0837070101       97.2068780738      117.0665205301
N                58.1630601724       97.1246924721      115.1054812485
H                50.9467344522       98.7706655927      115.0598914261
H                51.8492314241       97.0531049641      116.0605369466
H                52.8103377538       99.6022650591      117.1484369863
H                53.4682217478       98.1884673956      117.7692804060
H                54.1424040080       97.5415190814      115.4741818896
H                53.5669888463       99.0188693630      114.9192321873
H                55.2924816850      100.1930507280      115.8296581667
H                55.5041125111       99.1008221758      117.0931587074
H                56.5586947641       98.8112644866      114.4436865632
H                56.3740645069       97.5658301476      117.6500719104
H                57.6629184093       96.5267129981      117.4692380433
H                58.3127332091       97.3981213222      114.1770106416
H                58.7847497141       96.4288027544      115.4536326255
N                59.9752974878      103.5838105539      118.1810373604
C                59.9438795145      102.3507829590      117.5945131968
C                59.0913962541      101.3102777757      118.2891411065
O                59.2986125373      100.1523959805      118.1918062714
C                61.3212431102      101.9528657418      117.3053823488
C                62.1764305100      103.0461549444      116.9713285965
C                63.6049892667      102.7816694345      117.0035451231
O                64.0324219718      101.7887103481      117.4974607150
N                64.4153083644      103.7269498329      116.4854584673
H                60.7453992771      103.7060164327      118.7617728247
H                59.4161395839      102.4660365532      116.6187907855
H                61.7104538078      101.4114385068      118.1235994503
H                61.3648259831      101.2257908382      116.4972366392
H                61.9108328295      103.4737967197      116.0144315309
H                61.9608947592      103.8737765812      117.6424328086
H                64.0779452702      104.5511572351      116.0625829624
H                65.4063188458      103.6214813253      116.4902017130
H                58.3411089061       93.3084935632      109.5151467212
H                59.7051475416       99.6585093428      103.8441319568
H                65.9983852234       88.4158941349      112.4809007178
H                66.3797899032       88.0484029707      120.1511890587
H                62.3272033662       90.6116692191      109.9381246829
H                62.7936707366       92.0988523993      106.1210633286
H                75.3106681249       85.8877034303      112.1296815283
H                49.9520133736       98.5136789640      116.2134839227
H                50.3159639506       96.7688765388      117.9262658308
H                60.0086147969      104.2187361382      117.5440448492
H                58.3186557806      101.5947064216      118.8565673185
