 460 
 
N                 9.3600000000       38.1050000000        6.1170000000
C                 9.1390000000       38.6980000000        7.4320000000
C                10.4150000000       39.2980000000        8.0090000000
O                10.4130000000       40.3820000000        8.6070000000
C                 8.6300000000       37.6690000000        8.4150000000
C                 7.2440000000       37.1290000000        8.0880000000
C                 6.1220000000       38.1410000000        8.1060000000
N                 4.9500000000       37.5030000000        7.5830000000
C                 4.0230000000       36.9370000000        8.3470000000
N                 4.1560000000       36.9470000000        9.6830000000
N                 2.9790000000       36.3740000000        7.7470000000
H                 9.2940000000       37.1020000000        6.0120000000
H                 8.4310000000       39.5270000000        7.3210000000
H                 9.3430000000       36.8430000000        8.4420000000
H                 8.6000000000       38.1360000000        9.4010000000
H                 7.2740000000       36.6630000000        7.1010000000
H                 7.0100000000       36.3540000000        8.8190000000
H                 5.9630000000       38.5490000000        9.1030000000
H                 6.3480000000       38.9870000000        7.4510000000
H                 4.8920000000       37.4480000000        6.5670000000
H                 4.8750000000       37.4770000000       10.1590000000
H                 3.3270000000       36.7210000000       10.2120000000
H                 2.8420000000       36.4730000000        6.7420000000
H                 2.1850000000       36.1560000000        8.3420000000
N                10.5650000000       36.4580000000       18.5490000000
C                 9.2900000000       37.1830000000       18.5200000000
C                 8.5860000000       37.1660000000       17.1540000000
O                 7.3780000000       37.0020000000       17.1240000000
C                 9.4850000000       38.6290000000       18.9820000000
O                10.0040000000       38.5870000000       20.2980000000
C                 8.2280000000       39.4800000000       18.8650000000
H                11.4050000000       36.9880000000       18.7460000000
H                 8.6030000000       36.6770000000       19.2140000000
H                10.2760000000       39.0730000000       18.3630000000
H                 9.3110000000       38.3130000000       20.9290000000
H                 8.4080000000       40.4680000000       19.2780000000
H                 7.9420000000       39.5960000000       17.8250000000
H                 7.4020000000       39.0280000000       19.4090000000
N                 9.3730000000       37.3430000000       16.0800000000
C                 8.7850000000       37.2280000000       14.7070000000
C                 8.2650000000       35.8090000000       14.4540000000
O                 7.1940000000       35.6060000000       13.8450000000
C                 9.8210000000       37.6640000000       13.6860000000
C                10.0140000000       39.2100000000       13.7440000000
C                 9.5170000000       37.2200000000       12.2620000000
C                11.2610000000       39.5840000000       12.9410000000
H                10.3670000000       37.5080000000       16.1890000000
H                 7.9050000000       37.8830000000       14.6600000000
H                10.7670000000       37.1960000000       13.9870000000
H                 9.1330000000       39.7020000000       13.3310000000
H                10.1490000000       39.5070000000       14.7830000000
H                10.3800000000       37.3740000000       11.6220000000
H                 9.2630000000       36.1650000000       12.2290000000
H                 8.6780000000       37.7820000000       11.8560000000
H                11.5030000000       40.6330000000       13.1000000000
H                12.1080000000       38.9750000000       13.2470000000
H                11.1030000000       39.4490000000       11.8750000000
N                 9.0000000000       34.8020000000       14.9110000000
C                 8.4900000000       33.4420000000       14.7240000000
C                 7.1990000000       33.1720000000       15.5230000000
O                 6.3620000000       32.3940000000       15.0660000000
C                 9.4930000000       32.3730000000       15.1360000000
C                10.8610000000       32.4280000000       14.3970000000
C                11.7640000000       31.2670000000       14.8440000000
C                10.6460000000       32.4530000000       12.9010000000
H                 9.9250000000       34.9440000000       15.3040000000
H                 8.2220000000       33.3270000000       13.6690000000
H                 9.6640000000       32.4570000000       16.2110000000
H                 9.0260000000       31.4070000000       14.9380000000
H                11.3640000000       33.3540000000       14.6820000000
H                12.7050000000       31.3110000000       14.3040000000
H                11.9520000000       31.3210000000       15.9110000000
H                11.2950000000       30.3080000000       14.6260000000
H                11.5550000000       32.1710000000       12.3720000000
H                 9.8510000000       31.7780000000       12.5990000000
H                10.3920000000       33.4590000000       12.5880000000
N                 7.0880000000       33.7850000000       16.6820000000
C                 5.9990000000       33.5880000000       17.6270000000
C                 6.2860000000       32.4580000000       18.5740000000
O                 7.2790000000       31.7050000000       18.4720000000
H                 7.8960000000       34.2710000000       17.0590000000
H                 5.8570000000       34.5170000000       18.1820000000
H                 5.0860000000       33.3650000000       17.0670000000
N                 0.7590000000       31.2960000000       20.1690000000
C                 1.3200000000       32.3660000000       19.3600000000
C                 0.2510000000       33.3790000000       18.9350000000
O                -0.9570000000       33.1590000000       18.9920000000
C                 2.0490000000       31.7910000000       18.1340000000
O                 1.0730000000       31.3640000000       17.2040000000
H                 0.2520000000       30.5720000000       19.6750000000
H                 2.0300000000       32.8970000000       20.0030000000
H                 2.6130000000       32.5820000000       17.6370000000
H                 2.7110000000       30.9700000000       18.4340000000
H                 0.5460000000       30.6280000000       17.5830000000
N                 0.7630000000       34.5850000000       18.6330000000
C                -0.0790000000       35.6950000000       18.2500000000
C                -0.1760000000       35.8180000000       16.7320000000
O                 0.8410000000       35.7340000000       15.9740000000
C                 0.5610000000       36.9770000000       18.7920000000
H                 1.7680000000       34.7340000000       18.6510000000
H                -1.0680000000       35.5360000000       18.6780000000
H                -0.0670000000       37.8290000000       18.5430000000
H                 0.6660000000       36.9050000000       19.8690000000
H                 1.5330000000       37.1170000000       18.3280000000
N                -1.4030000000       35.9670000000       16.1920000000
C                -1.5520000000       36.3370000000       14.7920000000
C                -0.6320000000       37.4910000000       14.4520000000
O                -0.4470000000       38.3970000000       15.2960000000
C                -3.0040000000       36.7920000000       14.6770000000
C                -3.6600000000       35.8350000000       15.7030000000
C                -2.6910000000       35.8800000000       16.8890000000
H                -1.3550000000       35.4820000000       14.1310000000
H                -3.1120000000       37.8310000000       14.9860000000
H                -3.3950000000       36.6830000000       13.6700000000
H                -4.6730000000       36.1400000000       15.9720000000
H                -3.7020000000       34.8340000000       15.2730000000
H                -2.8710000000       36.7640000000       17.5060000000
H                -2.7390000000       34.9800000000       17.5010000000
N                -0.0370000000       37.4750000000       13.2430000000
C                 0.9880000000       38.5110000000       12.9640000000
C                 2.4050000000       37.9660000000       13.0290000000
O                 3.3450000000       38.5040000000       12.4180000000
H                -0.3090000000       36.8490000000       12.4810000000
H                 0.8220000000       38.9540000000       11.9800000000
H                 0.8700000000       39.3030000000       13.7110000000
N                 2.5310000000       36.8580000000       13.7270000000
C                 3.8560000000       36.1480000000       13.8030000000
C                 3.8110000000       34.9900000000       12.7720000000
O                 2.7600000000       34.6290000000       12.2320000000
C                 4.1150000000       35.6270000000       15.2030000000
O                 3.1890000000       34.5450000000       15.4740000000
C                 4.1270000000       36.6980000000       16.2680000000
H                 1.7370000000       36.4340000000       14.1840000000
H                 4.6070000000       36.8800000000       13.5050000000
H                 5.0930000000       35.1280000000       15.1800000000
H                 2.3380000000       34.9490000000       15.7190000000
H                 4.1300000000       36.2200000000       17.2440000000
H                 5.0180000000       37.3080000000       16.1660000000
H                 3.2420000000       37.3280000000       16.1870000000
N                 4.9830000000       34.4110000000       12.4710000000
C                 5.0060000000       33.2910000000       11.5240000000
C                 4.1130000000       32.1630000000       12.0350000000
O                 3.2900000000       31.6220000000       11.2850000000
C                 6.4610000000       32.8060000000       11.2590000000
C                 7.1420000000       33.9240000000       10.4760000000
C                 6.4140000000       31.4910000000       10.4500000000
C                 8.6820000000       33.7920000000       10.3980000000
H                 5.8450000000       34.7370000000       12.9020000000
H                 4.5570000000       33.6320000000       10.5810000000
H                 6.9490000000       32.6330000000       12.2190000000
H                 6.7270000000       33.9330000000        9.4660000000
H                 6.9090000000       34.8910000000       10.9260000000
H                 7.4240000000       31.1440000000       10.2520000000
H                 5.8880000000       30.7160000000       10.9990000000
H                 5.9060000000       31.6500000000        9.5040000000
H                 9.0670000000       34.4460000000        9.6200000000
H                 9.1110000000       34.1070000000       11.3400000000
H                 8.9770000000       32.7690000000       10.1930000000
N                 4.3060000000       31.7330000000       13.2840000000
C                 3.4860000000       30.5860000000       13.7090000000
C                 2.0220000000       30.9550000000       13.9140000000
O                 1.1420000000       30.1080000000       13.7120000000
C                 4.0550000000       29.9820000000       14.9960000000
C                 5.3590000000       29.2580000000       14.6640000000
C                 6.1490000000       28.9630000000       15.9330000000
N                 7.4410000000       28.3790000000       15.5620000000
C                 8.5230000000       28.6230000000       16.2740000000
N                 8.4620000000       29.5200000000       17.2610000000
N                 9.6060000000       27.8670000000       16.0910000000
H                 5.0400000000       32.0780000000       13.9080000000
H                 3.4980000000       29.8430000000       12.9020000000
H                 4.2340000000       30.7870000000       15.7080000000
H                 3.3150000000       29.3040000000       15.4180000000
H                 5.1480000000       28.3420000000       14.1110000000
H                 5.9680000000       29.9000000000       14.0270000000
H                 6.2680000000       29.9120000000       16.4460000000
H                 5.6040000000       28.2840000000       16.5930000000
H                 7.4340000000       27.7440000000       14.7730000000
H                 7.7240000000       30.1840000000       17.4140000000
H                 9.3210000000       29.6370000000       17.8150000000
H                 9.6700000000       27.2310000000       15.3020000000
H                10.4740000000       28.0930000000       16.5650000000
N                 1.7850000000       32.1980000000       14.2980000000
C                 0.4330000000       32.6570000000       14.5220000000
C                -0.3560000000       32.8680000000       13.2210000000
O                -1.5810000000       33.0040000000       13.1930000000
H                 2.5350000000       32.8590000000       14.4650000000
H                -0.1020000000       31.9250000000       15.1320000000
H                 0.4590000000       33.6080000000       15.0550000000
N                 0.3760000000       32.9750000000       12.1130000000
C                -0.2420000000       33.0640000000       10.8060000000
C                -0.3110000000       31.7450000000       10.0480000000
O                -1.2030000000       31.5850000000        9.1900000000
C                 0.5510000000       34.0540000000        9.9500000000
C                 0.3870000000       35.5080000000       10.3900000000
O                -0.5810000000       35.8140000000       11.1300000000
O                 1.2120000000       36.3070000000        9.9230000000
H                 1.3780000000       33.1140000000       12.1550000000
H                -1.2610000000       33.4460000000       10.9470000000
H                 1.6140000000       33.8070000000        9.9770000000
H                 0.2230000000       33.9870000000        8.9090000000
N                 0.6280000000       30.8390000000       10.3270000000
C                 0.8170000000       29.6990000000        9.4420000000
C                 0.7900000000       28.3160000000       10.1270000000
O                 0.8070000000       27.3240000000        9.4000000000
C                 2.1940000000       29.8380000000        8.7280000000
C                 2.2120000000       30.9970000000        7.7820000000
C                 1.2020000000       31.2000000000        6.8300000000
C                 3.2300000000       31.9250000000        7.8480000000
C                 1.2610000000       32.3320000000        6.0350000000
C                 3.3060000000       33.0280000000        7.0290000000
C                 2.3030000000       33.2370000000        6.1060000000
H                 1.4310000000       31.1330000000       10.8750000000
H                 0.0070000000       29.6950000000        8.7070000000
H                 2.9640000000       29.9720000000        9.4890000000
H                 2.3740000000       28.9080000000        8.1850000000
H                 0.3820000000       30.5060000000        6.7230000000
H                 3.9970000000       31.7720000000        8.5950000000
H                 0.4810000000       32.4810000000        5.2960000000
H                 4.1290000000       33.7190000000        7.1100000000
H                 2.3190000000       34.0940000000        5.4520000000
O                 0.8040000000       38.7300000000        9.1830000000
H                 1.4150000000       38.2360000000        9.7400000000
H                 1.3030000000       39.4320000000        8.7540000000
O                -2.1650000000       39.9200000000       16.8750000000
H                -1.5550000000       39.3570000000       16.3680000000
H                -2.1300000000       40.7850000000       16.4470000000
O                 2.4900000000       34.8580000000       22.1630000000
H                 2.0280000000       35.4830000000       22.7280000000
H                 1.9730000000       34.0360000000       22.1890000000
O                -2.9380000000       31.5800000000       17.7420000000
H                -2.3280000000       32.1520000000       18.2290000000
H                -3.5370000000       31.1850000000       18.4050000000
O                 5.5820000000       36.8420000000       19.2800000000
H                 6.1740000000       36.9070000000       18.5110000000
H                 5.0520000000       37.6570000000       19.2830000000
O                 6.1130000000       38.1350000000       11.4670000000
H                 6.3980000000       37.6560000000       12.2530000000
H                 5.3810000000       38.7050000000       11.7260000000
O                 3.5970000000       34.8350000000       19.6900000000
H                 4.2950000000       35.5040000000       19.6130000000
H                 3.2420000000       34.9340000000       20.5890000000
O                -3.6510000000       34.8740000000       11.1820000000
H                -2.7360000000       35.1540000000       11.3010000000
H                -3.6420000000       34.3350000000       10.3690000000
O                -3.4540000000       33.3070000000       22.4790000000
H                -2.6450000000       32.8270000000       22.2870000000
H                -3.4170000000       34.0980000000       21.9290000000
O                -2.7420000000       36.2600000000       20.9200000000
H                -2.4460000000       36.8480000000       21.6220000000
H                -3.1300000000       36.8310000000       20.2480000000
O                 6.9370000000       35.9430000000       21.5110000000
H                 7.5020000000       36.6470000000       21.8600000000
H                 6.4270000000       36.3120000000       20.7720000000
O                -3.5030000000       38.4620000000       19.1810000000
H                -3.2070000000       39.1910000000       19.7380000000
H                -3.4290000000       38.7960000000       18.2790000000
O                -6.8343955268       34.9414666489       22.4030000000
H                -7.3307442011       34.4497655267       23.0690000000
H                -5.9126828989       34.9139197503       22.6810000000
O                -3.2699586299       33.3292524547        8.8720000000
H                -4.1134905697       32.8082122772        8.7670000000
H                -2.5399043693       32.6837435264        8.9870000000
O                 1.8887658809       39.4415484710       16.8750000000
H                 2.0713381833       40.2513239673       16.3680000000
H                 1.1221539067       39.0393593601       16.4470000000
O                 0.2762341191       43.1914384694       16.8750000000
H                -0.5163381833       42.9446629731       16.3680000000
H                 1.0078460933       42.7286275802       16.4470000000
O                -6.2628920738       38.0213396662       19.2800000000
H                -6.5026004225       37.4761526272       18.5110000000
H                -5.2920813697       38.0728331303       19.2830000000
O                -2.0299063915       38.1350859356       10.4780000000
H                -1.6693873387       37.2595232522       10.7010000000
H                -1.2691135441       38.5988178014       10.1130000000
O                -5.4086212267       36.9149801768       11.4670000000
H                -5.9659473951       36.9076629368       12.2530000000
H                -4.5489867465       37.2639107724       11.7260000000
O                -2.4977861795       34.7886943710        6.7470000000
H                -2.8569797546       34.2905528493        7.5190000000
H                -1.5646767826       34.5628872554        6.7360000000
O                -1.3101534011       37.5717346839        6.5830000000
H                -1.8139021124       36.7552163217        6.7010000000
H                -0.7527002996       37.6632717785        7.3600000000
O                 5.3469188588       40.7718518130       20.9200000000
H                 4.6896959214       40.7341953325       21.6220000000
H                 5.0464183532       40.1503339563       20.2480000000
O                 3.8204309196       39.0118064807       19.1810000000
H                 3.0410984003       38.9036500002       19.7380000000
H                 3.4941784348       38.9088923606       18.2790000000
N                -7.0581019888       34.1179956907        6.1170000000
C                -6.4340489243       34.0128873050        7.4320000000
C                -6.5524336821       32.6078388898        8.0090000000
O                -5.6126621444       32.0675709406        8.6070000000
C                -7.0706890648       34.9681942355        8.4150000000
C                -6.8453427829       36.4385054452        8.0880000000
C                -5.4079250743       36.9041859482        8.1060000000
N                -5.3744492819       38.2381677214        7.5830000000
C                -5.4011196604       39.3239732707        8.3470000000
N                -5.4589594064       39.2037918920        9.6830000000
N                -5.3666919627       40.5096037923        7.7470000000
H                -7.8937254688       34.6766533674        6.0120000000
H                -5.3621138646       34.2115332909        7.3210000000
H                -8.1425260484       34.7637181226        8.4420000000
H                -6.6512552013       34.7606749976        9.4010000000
H                -7.2639106211       36.6455246830        7.1010000000
H                -7.3995124708       37.0286553896        8.8190000000
H                -4.9750867095       36.8378839874        9.1030000000
H                -4.7882675827       36.2854642069        7.4510000000
H                -5.3930806791       38.3158971949        6.5670000000
H                -5.3594659424       38.3161196267       10.1590000000
H                -5.2401811476       40.0347269518       10.2120000000
H                -5.2124554478       40.5787492726        6.7420000000
H                -5.1584855008       41.3062279629        8.3420000000
N                -4.5927497756       30.0261109826        5.5440000000
C                -3.1440936652       30.0072569685        5.6400000000
C                -2.6499047394       29.3732172965        6.9000000000
O                -1.5090691371       28.8612025228        7.0070000000
C                -2.7130685819       31.4558143120        5.6220000000
C                -2.7516800506       31.9769372865        4.1740000000
O                -2.9879461130       31.2577124623        3.2060000000
N                -2.5545683969       33.2903446856        4.0600000000
H                -5.0660053434       30.9044082942        5.3740000000
H                -2.7163015084       29.4762147192        4.7750000000
H                -3.3943311913       32.0558328593        6.2210000000
H                -1.6989277508       31.5723577575        6.0120000000
H                -2.6750984499       33.7155805099        3.1540000000
H                -2.5767683228       33.8758932858        4.8880000000
N                -3.5382609608       29.4265391858        7.9290000000
C                -3.1788226330       28.9211046317        9.2700000000
C                -3.0533183539       27.3844844197        9.2470000000
O                -2.3708858716       26.7964921518       10.0870000000
C                -4.2179409583       29.3512988973       10.2970000000
C                -3.7699474943       29.0672463384       11.7710000000
C                -2.7967475683       30.1288780561       12.2940000000
N                -2.2966515639       29.7350697444       13.6030000000
C                -2.5208533767       30.2767408135       14.7940000000
N                -3.2002466926       31.4079970720       14.9420000000
N                -2.1351785339       29.6187492363       15.9030000000
H                -4.4121523900       29.9149148302        7.8170000000
H                -2.1915759936       29.3210659708        9.5240000000
H                -4.4065606647       30.4185999824       10.1760000000
H                -5.1441664731       28.8110292464       10.0910000000
H                -4.6539306487       29.0441426019       12.4060000000
H                -3.2929265546       28.0874708421       11.8090000000
H                -1.9397259381       30.2252830629       11.6210000000
H                -3.2835986349       31.1016272730       12.3610000000
H                -1.7590947259       28.8681454998       13.6010000000
H                -3.1021453484       32.1019135844       14.2120000000
H                -3.2378177988       31.7449220072       15.9010000000
H                -1.4593563241       28.8833076406       15.7870000000
H                -2.1238451389       30.1583792523       16.7670000000
N                -9.0869458288       33.8979350792       18.5490000000
C                -7.8215774111       34.6396174690       18.5200000000
C                -7.4842998429       35.2577993533       17.1540000000
O                -7.0223280092       36.3859580411       17.1240000000
C                -6.6668046772       33.7477425153       18.9820000000
O                -6.9626777442       33.3192753307       20.2980000000
C                -5.3013170586       34.4108364478       18.8650000000
H                -9.0479523648       32.9054737400       18.7460000000
H                -7.9162862654       35.4875769214       19.2140000000
H                -6.6777893979       32.8407164209       18.3630000000
H                -6.8534687048       34.0564309355       20.9290000000
H                -4.5356839597       33.7609518752       19.2780000000
H                -5.0578581118       34.6005197133       17.8250000000
H                -5.2797605411       35.3521734314       19.4090000000
N                -7.7245133465       34.4877373605       16.0800000000
C                -7.5301062679       35.0544602979       14.7070000000
C                -8.4989963159       36.2142935079       14.4540000000
O                -8.1392994729       37.2433067153       13.8450000000
C                -7.6705191919       33.9392579796       13.6860000000
C                -6.4281439176       32.9991150767       13.7440000000
C                -7.9030344711       34.4245297024       12.2620000000
C                -6.7277504166       31.7321813982       12.9410000000
H                -8.0786191549       33.5444081091       16.1890000000
H                -6.5228596284       35.4890626533       14.6600000000
H                -8.5488190808       33.3539979476       13.9870000000
H                -5.5615594190       33.5160834574       13.3310000000
H                -6.2384343727       32.7337016472       14.7830000000
H                -8.2011665590       33.6001497789       11.6220000000
H                -8.6896912721       35.1720001549       12.2290000000
H                -6.9968281942       34.8701250161       11.8560000000
H                -5.9402897680       30.9981032504       13.1000000000
H                -7.6786598875       31.3031578811       13.2470000000
H                -6.7656638461       31.9365134120       11.8750000000
N                 4.9311643021       42.0779598287       16.1920000000
C                 4.6852349027       41.7639220435       14.7920000000
C                 3.2258415867       41.9836654150       14.4520000000
O                 2.3487225709       41.6908801147       15.2960000000
C                 5.0171933440       40.2789531572       14.6770000000
C                 6.1739796554       40.1893404923       15.7030000000
C                 5.6505085122       41.0060191086       16.8890000000
H                 5.3271866229       42.3620290480       14.1310000000
H                 4.1713929494       39.6659224136       14.9860000000
H                 5.3070901130       39.9948372243       13.6700000000
H                 6.4163419072       39.1595567583       15.9720000000
H                 7.0618710846       40.6534674254       15.2730000000
H                 4.9749420553       40.4081345359       17.5060000000
H                 6.4539313756       41.4144498892       17.5010000000
N                -5.8080114101       43.3232160871       18.6330000000
C                -4.4257232119       43.4974094771       18.2500000000
C                -4.2707020872       43.5199139412       16.7320000000
O                -4.8519482212       42.6811661056       15.9740000000
C                -3.6354786443       42.3021532186       18.7920000000
H                -6.1814736250       42.3783605563       18.6510000000
H                -4.0689212511       44.4334086014       18.6780000000
H                -2.5836250002       42.4200171722       18.5430000000
H                -3.7503324733       42.2472205513       19.8690000000
H                -4.0002350877       41.3903765262       18.3280000000
N                -3.5281643021       44.5080271117       16.1920000000
C                -3.1332349027       44.4520648968       14.7920000000
C                -2.5938415867       43.0783215254       14.4520000000
O                -1.9017225709       42.4651068257       15.2960000000
C                -2.0131933440       45.4820337831       14.6770000000
C                -2.5139796554       46.5286464480       15.7030000000
C                -2.9595085122       45.6669678318       16.8890000000
H                -3.9721866229       44.7089578923       14.1310000000
H                -1.0593929494       45.0560645267       14.9860000000
H                -1.9120901130       45.8751497160       13.6700000000
H                -1.7433419072       47.2534301821       15.9720000000
H                -3.3598710846       47.0655195150       15.2730000000
H                -2.1039420553       45.3808524044       17.5060000000
H                -3.7149313756       46.1585370511       17.5010000000
N                -2.9051979932       42.5710364101       13.2430000000
C                -2.5204956749       41.1653603712       12.9640000000
C                -3.7009795199       40.2107023741       13.0290000000
O                -3.7050578527       39.1276384945       12.4180000000
H                -3.3113298959       43.1195953199       12.4810000000
H                -2.0538464210       41.0876205883       11.9800000000
H                -1.7756035551       40.8715513689       13.7110000000
N                -4.7235356673       40.6555831732       13.7270000000
C                -6.0009137040       39.8630995132       13.8030000000
C                -6.9812711216       40.4810706563       12.7720000000
O                -6.7684062923       41.5717633557       12.2320000000
C                -6.5816129394       39.8992989336       15.2030000000
O                -7.0556524263       41.2422384575       15.4740000000
C                -5.6600997319       39.3534066288       16.2680000000
H                -4.6937304385       41.5552073438       14.1840000000
H                -5.7424831084       38.8467144349       13.5050000000
H                -7.5027596159       39.3018260887       15.1800000000
H                -6.2802781631       41.7772260761       15.7190000000
H                -6.0755598749       39.5898085525       17.2440000000
H                -5.5773242356       38.2767779940       16.1660000000
H                -4.6720037275       39.8048391111       16.1870000000
H                 8.7562707324       38.4315539289        5.5348715752
H                11.2845019823       38.8142108422        7.9094291531
H                10.5341687895       35.8212961119       19.1843405349
H                 5.6657692409       32.2751316050       19.3368059750
H                 1.4206209255       30.8741337516       20.6097795588
H                 0.7599238443       28.2526112327       11.1245356079
H                -9.6229319654       34.2429876347       19.1843405349
H                -9.4429335845       36.1572582043       14.7791605866
H                 5.5385493068       42.7396274977       16.2492656254
H                 2.9711075731       42.3591189182       13.5608517243
H                -5.9309139353       43.6393955231       19.4666219368
H                -7.8187617574       39.9940374499       12.5241934410
H                -6.4734333569       34.4775636090        5.5348715752
H                -7.4061583740       32.0967226634        7.9094291531
H                -4.8558262949       29.4959847420        4.8659462307
H                -3.5288448042       26.8544334893        8.5449169520
