 462 
 
N                57.9608618817       54.8225902960      214.6449329566
C                56.8650474365       55.7510456326      214.5303969178
C                55.6611058673       54.9958677154      213.9846444097
O                54.5129432451       55.2827046175      214.3658945466
C                57.0947248913       56.9494555672      213.6122194256
H                58.9158584824       55.0980987314      214.3161464219
H                56.5712509885       56.1077257934      215.5137401955
H                56.1853594358       57.5611079609      213.5819936067
H                57.9027836293       57.5548248751      213.9795314235
H                57.3218791029       56.6131668717      212.5984946392
N                55.9120947379       54.0421528095      213.0638494127
C                54.7758418966       53.3516690945      212.5034549112
C                54.0828824334       52.4586983666      213.5238804335
O                52.8428885342       52.4371246218      213.5390032562
C                55.1221525673       52.4767478761      211.3324352547
S                55.4679635087       53.5841474591      209.9416577240
H                56.8404642432       53.9299304582      212.6847228050
H                54.0431520414       54.1207181714      212.2016377991
H                55.9623916061       51.8349693057      211.5402947305
H                54.2474579499       51.8737929388      211.0437090353
H                56.6492314891       53.9681631615      210.3910494151
N                53.5136169157       52.8428652262      216.4161599365
C                52.8547105458       53.7313036718      217.3085193400
C                51.7684713773       54.6414389374      216.7014432044
O                50.7413121595       54.8191765328      217.4072329690
C                53.9048519405       54.5849321175      218.0656446134
O                54.9837455936       53.8202748349      218.5249539195
C                53.2324817894       55.2463407470      219.2993780575
H                54.4297564556       53.0933895787      216.1095908100
H                52.2989946315       53.1044754241      218.0519920174
H                54.2446477582       55.3607628053      217.3965516559
H                55.6163749326       53.6732198171      217.7926073635
H                53.9279529438       55.8844064695      219.7899342636
H                52.3712487658       55.8096709346      218.9533711196
H                52.9040997421       54.4827116475      219.9936194793
N                51.8996220250       55.1721828606      215.5177290492
C                50.8714064565       56.0378098651      214.8996779126
C                50.2145398462       55.4564047354      213.6022550148
O                49.3422689447       56.0364146571      212.9592866848
C                51.4458056114       57.4230545394      214.5311826101
C                52.0083987703       58.0525600101      215.7561931188
C                51.2093999728       58.6937311798      216.6889688771
C                53.3748692090       57.8995734775      216.0619336277
C                51.7380245881       59.2182484780      217.8694822928
C                53.8962820863       58.4066642551      217.2364432986
C                53.1047499710       59.1183573128      218.1521723627
O                53.6305177799       59.7373156677      219.2550699052
H                52.8003949353       55.1313321638      215.0251664123
H                50.0932551197       56.1510168554      215.6392884881
H                52.2306512427       57.2838109710      213.7898262817
H                50.6250751326       58.0095891389      214.1253938903
H                50.1743439943       58.8193232422      216.5276720975
H                54.0118990177       57.3755730149      215.3848570768
H                51.0872061833       59.7105121610      218.5571654803
H                54.9319022869       58.2843442481      217.4462716371
H                54.5667758817       59.4811474164      219.3509571400
N                50.7228431694       54.2831809703      213.1914888089
C                50.2324757201       53.6306564269      211.9989594451
C                49.1480920082       52.6340769496      212.3639411748
O                49.3622138189       51.5285752182      212.7226934877
C                51.3644917792       52.9197260051      211.3165134049
S                51.4122720360       53.4193174986      209.5500515216
H                51.3949644536       53.7829161758      213.7239910355
H                49.8089855172       54.4374819446      211.3504867084
H                52.3131692995       53.2453641698      211.7257664995
H                51.2825813619       51.8397935530      211.4187089269
H                50.4789879947       52.5559854055      209.1701473763
N                47.8832957695       53.1513939130      212.2657900942
C                46.8087473203       52.2240240440      212.4370954826
C                46.8154046570       51.1890297496      211.2486892674
O                47.0169303188       51.4901605472      210.1649644385
H                47.7338426449       54.0545390053      211.8774529139
H                46.9345440903       51.7160947983      213.4164328379
H                45.8665529182       52.7611041372      212.4367692980
N                59.5082349439       68.6191403160      207.2398561063
C                58.3427470384       68.5129162945      206.4119552641
C                58.4924381657       69.2724570381      205.1264459042
O                57.7656472729       68.9789232644      204.1274023710
C                57.1301241328       68.9942005072      207.2574431796
C                57.7536951875       69.2621375164      208.6519335538
C                59.2267743127       69.5668325985      208.3257278719
H                58.2077871852       67.4693941686      206.1351945099
H                56.7232346685       69.9267780065      206.8287215306
H                56.3373774275       68.2515060704      207.3081791249
H                57.2867784572       70.0822975220      209.1661019987
H                57.7234148985       68.3715051737      209.2298015052
H                59.3436632127       70.6088383862      207.9492924199
H                59.8598395745       69.4599101598      209.1817614105
N                58.1686616940       66.7405556684      202.4121775864
C                57.0356635985       65.8603380761      202.2508102958
C                56.3359712875       66.0919104253      200.9263361218
O                55.9845044482       65.0777897451      200.2962548942
C                56.0346664550       65.9394287835      203.4141363656
C                56.7231440725       65.6659245920      204.7454355125
C                57.9655693542       65.1206929428      204.9488667063
C                56.1906506362       65.9520036634      206.0327928735
N                58.2241758997       65.0347203345      206.2493545164
C                57.1233530094       65.4813353490      206.9622043351
C                54.9926198954       66.5120135183      206.4673565816
C                56.7858589698       65.3295655575      208.3085355634
C                54.6911138113       66.4015664643      207.8278694738
C                55.5522981913       65.7514165573      208.6711050328
H                58.1753137677       67.4094387177      203.1618630631
H                57.4233901965       64.8253392836      202.2172211901
H                55.5825209626       66.9165717184      203.4414960881
H                55.2448019209       65.1873807510      203.2427128455
H                58.7132055257       64.8199109401      204.2358717219
H                59.0573845198       64.6195655392      206.6452272697
H                54.3307760582       66.9841997152      205.7642946204
H                57.5034084756       64.8617946014      208.9804586351
H                53.7562900411       66.8116255743      208.1877173800
H                55.2354543545       65.5737089667      209.6960301623
N                53.0723999232       56.4966297495      201.8050665262
C                51.7499379856       56.9023961768      202.1883354865
C                51.4787070782       56.5817861957      203.6560401934
O                51.0886195417       57.4701870056      204.4464405701
H                53.1860034858       55.9144096358      200.9439464731
H                51.6225129367       57.9928785395      202.0535219431
H                51.0017015647       56.3837375737      201.5727168640
N                51.6919131653       55.3069211154      204.0112959242
C                51.7990106125       54.8401989507      205.3920079003
C                52.7387535864       55.7158175664      206.2339492813
O                52.3720194061       56.1868349549      207.2496286499
C                52.3588981504       53.4194116550      205.4450225686
C                51.3626885597       52.3810545865      204.9856114832
C                52.0188217190       51.0353155926      205.2411894402
C                50.0812690042       52.3723261657      205.7380084986
H                51.9964838803       54.6640003033      203.2836490975
H                50.8216287986       54.8770414359      205.8678393680
H                53.2576661561       53.3863404674      204.8068136104
H                52.6323523806       53.2245722152      206.4601379507
H                51.1519289664       52.5343820187      203.9028490846
H                51.3612760149       50.2356279771      204.8626591953
H                52.9441949799       50.9481958871      204.6421995192
H                52.2121185665       50.8978213864      206.2463450885
H                49.4167599919       51.6247345830      205.3296444074
H                50.2726321707       52.1161617540      206.7847272744
H                49.5528013140       53.3205101446      205.7252932990
N                53.9485527966       55.8486159178      205.7913234077
C                54.9174042656       56.5187036712      206.5968942117
C                54.4530103435       57.9060560087      206.8859674871
O                54.5508327411       58.3807234797      208.1471656586
C                56.3307571363       56.5904142564      205.9839473906
C                57.2164769986       57.4913627028      206.8229169965
C                56.8572881120       55.1428508186      205.9509265485
H                54.2716249177       55.4432798392      204.8482851951
H                54.9979306963       55.9736900537      207.5589919344
H                56.2478162607       56.9942341487      204.9719467205
H                58.2463099513       57.3905670413      206.5408616649
H                56.9193978791       58.5338184795      206.7234348754
H                57.1080678413       57.2235742647      207.8847275421
H                57.8312319131       55.1271079620      205.5253554218
H                56.8784115236       54.7726221103      206.9666815124
H                56.1844985526       54.5282138739      205.3652672721
N                54.0457522111       58.6245238885      205.9150981435
C                53.7138346164       60.0582371962      206.0147560600
C                52.5795048930       60.1800303157      207.0032582439
O                52.5582058592       61.0593666473      207.8276661616
C                53.3748960510       60.7661186768      204.6914173058
C                52.9493230179       62.2163244213      204.9014105495
C                53.9654615580       63.1205997940      205.5947648348
C                52.8044595324       62.8725026601      203.4948898479
H                54.0585977450       58.2004991422      204.9839965886
H                54.5801614083       60.5526404271      206.4446793606
H                54.2541242950       60.7124399838      204.0486260014
H                52.5724797837       60.2232259443      204.1892866273
H                52.0016672910       62.2288916058      205.4280398771
H                53.6313994948       64.1719459141      205.5492454740
H                54.1195114844       62.8654377193      206.6002944268
H                54.9122946226       63.0778363925      205.0509821703
H                52.5415076912       63.9427661364      203.6104125601
H                53.7503658806       62.8311038916      202.9890870128
H                52.0631214615       62.4046803777      202.9043104739
N                51.7001694294       59.2142030950      206.9024958959
C                50.5986119632       59.0450500640      207.8244902507
C                51.0061737507       59.2908733734      209.3524684533
O                50.4588685029       60.1204112921      210.0540369950
H                51.7117534835       58.5401962394      206.1349916663
H                49.7750558276       59.7169664217      207.5821028763
H                50.2399995027       58.0070288334      207.7780307834
N                51.9603584993       58.4451685743      209.6856370635
C                52.6376435514       58.3443605898      210.9420203967
C                53.2953376421       59.6957003184      211.2404694759
O                52.9551310626       60.3583006475      212.1526137718
C                53.6638127912       57.2148876078      210.9891149588
H                52.2598967536       57.7759378684      208.9687188809
H                51.8872969161       58.2174053830      211.7500849312
H                54.1416320542       57.2162918250      211.9881991753
H                53.1795576231       56.2745502930      210.8399064238
H                54.4168547042       57.3776192996      210.2313681975
N                54.2559267003       60.0839176293      210.3707620091
C                54.7903439054       61.3914704644      210.7185497243
C                53.7082373986       62.4225061913      211.1181481504
O                53.8823915677       63.1652519116      212.0105038357
C                55.6163073205       61.9335463421      209.5497451774
C                56.6637953152       60.9555806057      209.0090810192
C                57.2684095508       61.5697281426      207.7747475921
C                57.7373571124       60.6551023788      210.0680434002
H                54.4375193782       59.6068967845      209.5017284345
H                55.4442355125       61.2693511775      211.6050399212
H                54.9512193377       62.1999346403      208.7547194355
H                56.1358183986       62.8400551737      209.8810448589
H                56.1755623900       60.0053427392      208.7367336190
H                58.0223231264       60.9362500384      207.3390587922
H                56.5053298931       61.7650968187      207.0185456858
H                57.7367217440       62.5287154224      208.0140242471
H                58.4825189915       60.0252796433      209.6518157436
H                58.1775323566       61.5936819027      210.3867189381
H                57.2787462737       60.1658986224      210.9326363736
N                52.6533614392       62.5232763195      210.2959282469
C                51.7492086580       63.6623337236      210.4367360695
C                51.0228485414       63.5672475086      211.7535615297
O                50.9577478104       64.5430282129      212.4853816888
C                50.7598456256       63.7984365132      209.2628245534
C                51.4570012209       64.2773774350      207.8828467985
C                50.5409217614       64.2894364873      206.6314981776
C                49.9858658973       65.6491444078      206.2641263618
N                49.4046882641       65.6343971709      204.9288515424
H                52.5163824894       61.9041855511      209.5062878744
H                52.3749860247       64.5847895439      210.4749739199
H                50.3105972128       62.8369105203      209.0670627984
H                49.9861443956       64.5027925983      209.5379082706
H                51.8572621477       65.2837894006      208.0871281998
H                52.2604414394       63.6099499041      207.7414053354
H                51.1507702017       63.9466604413      205.8265995361
H                49.7245412093       63.5868960323      206.8118843273
H                49.1956478942       65.9771955267      206.9676808305
H                50.7797308176       66.4072131363      206.3107147209
H                49.0808297040       66.5989674824      204.6339519146
H                50.1459473662       65.3881444789      204.2042997376
H                48.6184801723       65.0073526815      204.8193799352
N                50.5538993753       62.3693277673      212.0037953213
C                49.9638889295       61.9251638008      213.2523473392
C                50.7751833237       62.3616432703      214.5066329785
O                50.2373646002       63.2125110224      215.4292830264
C                49.8820529281       60.4162953788      213.2605370448
H                50.6603257810       61.6313998483      211.3454639392
H                48.9296617505       62.3736855458      213.3819678525
H                49.5181211456       60.0367888149      214.2479136780
H                49.1747090374       60.0650751468      212.5101993124
H                50.8496731454       59.9920299309      213.0579430781
N                51.9226970536       61.8232992648      214.5998047494
C                52.9937048718       62.0571692664      215.5869811311
C                53.2108079358       63.5698490965      215.7727387445
O                53.2496172742       64.0271066782      216.8222453003
C                54.2270530353       61.3498890651      215.0292289320
H                52.2124390752       61.2630840550      213.8315748142
H                52.7144124014       61.6557926912      216.5632901166
H                55.0739067038       61.5062706210      215.6567797861
H                54.0073857224       60.2774012893      214.9533721494
H                54.4213508211       61.7257409815      214.0156688107
N                53.3592173431       64.2856167077      214.6435177934
C                53.5071829529       65.7106167698      214.7128694755
C                52.2628394919       66.3931198394      215.3856307124
O                52.4495486580       67.2628254159      216.1531357025
C                53.9471013437       66.3188387770      213.3518233577
C                54.1626199919       67.8630981610      213.5224386349
C                54.9744463359       68.6075320144      212.4285007533
N                54.3357755265       69.3090414519      211.3107389585
C                53.3044326854       68.9965058427      210.5445626514
N                52.3936101834       68.1282224772      210.8938551485
N                53.2187910180       69.5683683404      209.3197661283
H                53.3174852735       63.8094411348      213.6944121984
H                54.3022362113       65.9004509364      215.4058591424
H                54.8951842055       65.8446440789      213.0606118236
H                53.2058625981       66.0823506240      212.5824889083
H                53.2068354886       68.3301094375      213.6978898683
H                54.7175871004       67.9647052914      214.4535307571
H                55.5514633009       69.3831140506      212.9657650312
H                55.7072051740       67.9183680802      211.9929679698
H                55.0136484556       70.0121446716      210.9090199314
H                52.3260766773       67.7863160199      211.8627041657
H                51.4992280271       68.0559498369      210.3852750207
H                53.8700802845       70.2495485658      208.9979711136
H                52.3327574792       69.4995123874      208.7997292078
N                51.0540674546       65.9335621854      215.0989593979
C                49.7665688445       66.4642735863      215.5797934897
C                49.6880548454       66.3520343546      217.0941379957
O                49.4561930326       67.2694922501      217.9081690119
C                48.6190853388       65.7537221537      214.8708636365
C                47.2393779436       66.3802073464      215.0405188222
C                47.2928371375       67.9165308607      214.7182371083
O                47.9157628075       68.2859700764      213.7109699540
O                46.6990771000       68.6413435102      215.5109670992
H                50.9636506042       65.2399879807      214.3111980975
H                49.7274029565       67.5341533526      215.3271247977
H                48.8480708678       65.8391993369      213.7422322883
H                48.5727282506       64.6957382465      215.0940179373
H                46.4972981917       65.9305900732      214.3480494039
H                46.8864901192       66.2646757325      216.0461502140
N                49.9121925993       65.0892499334      217.4490847745
C                49.6307614153       64.5527964981      218.7901187119
C                50.6958627053       64.8213597610      219.8481753187
O                50.3459511799       64.6999544479      221.0046978067
C                49.3650132344       63.0673190288      218.6224859643
C                48.8877148154       62.4433077180      219.9228644124
C                49.2243629966       60.9275139306      219.8721110420
O                48.8204657661       60.3386658322      218.9002336765
O                49.9050644925       60.4939232924      220.7966963896
H                50.1195548874       64.4383204879      216.7580544178
H                48.7184278464       65.0400210523      219.1724476970
H                48.6031963501       62.9156417455      217.8240049741
H                50.2690647252       62.5802047790      218.2703664497
H                49.4139407009       62.8876310713      220.7781608376
H                47.8186999534       62.5761003937      220.0476707463
N                51.9371008626       65.1687542292      219.5513512371
C                52.8574089337       65.5402334026      220.5833145423
C                53.3341322491       66.9403789832      220.5242548653
O                53.1349243806       67.6617934633      219.5104777831
C                54.0636051834       64.6239982527      220.6925778099
C                53.6437037835       63.1819809232      220.8612041356
C                52.9518260951       62.9409165562      222.2049634648
O                53.0331531214       63.6817203519      223.1600979293
N                52.3272289043       61.7435481639      222.2317871731
H                52.1965669129       65.3749503393      218.5672280239
H                52.2540840108       65.4385659052      221.5155642035
H                54.7127994072       64.7291075139      219.8598417368
H                54.6292196888       64.8726939789      221.6323241229
H                52.9540562192       62.8879569665      220.0602837692
H                54.5074196744       62.5111790253      220.8403904379
H                52.0577207616       61.3007769812      221.3489725498
H                51.6499273287       61.5641519589      222.9526952113
N                53.9783147857       67.4007577247      221.5399378293
C                54.7995588448       68.5930698484      221.5040096877
C                56.1786588873       68.1841062959      221.0783661781
O                56.9435343019       67.6456307135      221.8711054898
C                54.9843017531       69.4281656756      222.8022702580
C                55.6210733581       70.7538799967      222.4220370357
C                53.6757112644       69.5982448424      223.5819755740
H                54.1905611460       66.7319817230      222.3270767690
H                54.3223126930       69.2003691781      220.7471828059
H                55.6578532503       68.8964836521      223.4479593810
H                55.7960343353       71.3850191524      223.2849888270
H                56.5753199644       70.5835873841      221.9152591223
H                54.9862906599       71.3265503422      221.7176400364
H                53.8440056674       70.1690724516      224.4896886942
H                52.9134672194       70.1172130294      222.9854852209
H                53.2662221923       68.6139735745      223.8464964381
N                56.5258682359       68.4756767517      219.8705452406
C                57.8696383223       68.2517682160      219.3345397531
C                59.0191620619       68.2920543040      220.2818693546
O                59.7802154942       67.2977750448      220.3803866678
C                58.0510866269       69.2121293073      218.1200334563
O                58.1362247240       68.2336515279      217.1122565373
C                59.1733647695       70.2346699239      218.1580849694
H                55.8194703368       68.7642440452      219.1634648129
H                57.9030326238       67.2286318173      218.8905485648
H                57.1084208354       69.7984575033      217.9993410141
H                58.3195679690       68.5792888890      216.2770953966
H                59.1739441284       70.8217363377      217.2440517416
H                59.0417765783       70.9598587483      218.9834723283
H                60.1450271160       69.7559484082      218.2628979955
N                59.0090897337       66.1805195791      223.4577884401
C                59.3461595731       64.8190507414      223.1049164283
C                60.8796712002       64.7020697948      222.9394294884
O                61.4491927371       63.7375990473      223.4227439132
C                58.5512425616       64.3421571961      221.8828853560
C                58.5220030086       62.8102195817      221.9073348817
C                57.4380159971       62.3439048246      222.8723663476
O                56.4626146223       63.0342623165      223.0517260828
N                57.5655079112       61.1531965503      223.3804835500
H                58.4064629288       66.7281974576      222.8047381853
H                59.0742540994       64.1940937105      223.9400801107
H                57.5200233515       64.7227199264      221.9538777886
H                58.9827947949       64.7345284380      220.9536989602
H                58.2186456931       62.4725849197      220.9122126027
H                59.4948259085       62.4437975006      222.1389927593
H                58.4719939304       60.6426239543      223.4338658263
H                56.8793441699       60.7900052607      224.0599725240
O                51.6765036036       69.3386389216      218.1230506620
H                51.4612947488       70.2488580845      218.2762904515
H                50.8647743384       68.8387833873      218.0964948953
N                54.1636336767       63.9043625138      228.2120635451
C                55.1480830041       63.0508593902      227.5955299309
C                55.1536229421       61.6671806255      228.1990617432
O                55.2093835473       60.6840467511      227.5498620731
C                56.5610277800       63.6136609655      227.6823419156
C                57.5347657247       62.6079332418      227.0693845471
C                56.6793411066       64.9640749228      226.9668389598
H                54.4791066878       64.8244145346      228.5399846810
H                54.8925017616       62.9430430676      226.4979139829
H                56.7985206829       63.7696157484      228.7373496237
H                58.5206039456       63.0517888370      227.0185518468
H                57.5956612615       61.7008333870      227.6636557723
H                57.2213974111       62.3528038407      226.0649520930
H                57.6717571684       65.3424773793      227.0719279610
H                56.4542056870       64.8401302865      225.9039658436
H                55.9757940544       65.6917308056      227.3795679625
N                52.4579082854       59.5219983240      227.3388686178
C                52.7329324507       58.9263077547      226.0642492504
C                53.7553626195       57.7642951626      226.1687391980
O                53.5363910599       56.6955381014      225.6558598737
C                53.1520219172       59.9660944550      224.9901773430
O                54.4130830747       59.6500721750      224.4245630597
H                52.9286688974       60.4152766768      227.5389743646
H                51.7830178860       58.4364247068      225.7434480718
H                52.3852751326       59.9827599982      224.1852934076
H                53.1915218895       60.9612517918      225.4475261763
H                54.5361711603       60.1932114003      223.6423819818
N                62.4506970693       63.8751887060      216.5270148778
C                61.4043371890       64.7335059353      216.9912214994
C                61.6681951324       66.1549313703      216.5760711410
O                60.8352512334       66.8203362130      216.0717818678
C                61.1107445930       64.7193800334      218.5221144709
C                60.2649155917       63.4847153527      218.8278180147
C                60.7365103969       62.2716878996      219.2112749225
C                58.8823515270       63.3369375951      218.5766531461
N                59.7254856678       61.3937725198      219.2334285075
C                58.5838259482       61.9970886954      218.8516503849
C                57.8716379370       64.2089526923      218.1690439819
C                57.3021235037       61.4802590537      218.7493231264
C                56.6277013806       63.6810848374      218.0458925282
C                56.3265770442       62.3575896634      218.3255652969
H                62.9146819109       63.2109981009      217.1567339103
H                60.4545624506       64.4434527512      216.4571787171
H                62.0625112651       64.6565461333      219.0337817537
H                60.5864552496       65.6087437574      218.7803496540
H                61.7602099459       62.0047487032      219.4399224803
H                59.8208536018       60.4051993582      219.5029235995
H                58.0886839674       65.2560768039      217.8972428798
H                57.0845821620       60.4354244564      218.9750944624
H                55.8056382863       64.3064604567      217.6779600686
H                55.2975961475       62.0189739977      218.1984443858
N                60.4746676479       66.8131160853      212.9046048088
C                59.0537047532       67.1719175725      212.6565442719
C                58.7381125211       68.5935971171      213.0013719649
O                57.8113321691       69.1987661536      212.4896448047
C                58.1221404596       66.3579327777      213.6142881909
C                58.1044103672       64.8967994765      213.1365372358
C                57.3466802909       64.0565262715      214.1302029139
C                57.4239445645       64.8531328399      211.7617939509
H                60.6659450075       66.1069952048      213.5536628238
H                58.8080840106       66.9781637478      211.6018628096
H                58.5173382544       66.4510705901      214.5911843007
H                57.1323392902       66.7881945330      213.5451660069
H                59.1307499584       64.5544080530      213.0594487614
H                57.3629763254       63.0428662947      213.7882250000
H                57.8207138230       64.1136730965      215.0950167006
H                56.3216967224       64.4008532134      214.2131644593
H                57.1983783167       63.8381039814      211.5423708625
H                56.5149748173       65.4404606374      211.7719544390
H                58.0828638855       65.2367278045      210.9826959617
H                58.0825167658       54.6066934528      215.5101431289
H                54.6264992797       51.9097123846      214.1587781544
H                53.6058655542       52.0376575670      216.8074792618
H                46.6380200524       50.2212659858      211.4274852392
H                59.8489422417       67.7989808986      207.3856541422
H                59.1644810184       70.0096695987      205.0566172231
H                58.9121806034       66.2516142516      202.5467729891
H                56.1782813992       67.0240652024      200.6004199200
H                53.5793886751       57.2254806913      201.6576259955
H                59.1820965131       69.1084321846      220.8359266807
H                58.5651236898       66.1868418602      224.2406384772
H                61.3844855178       65.4089990553      222.4440371939
H                53.5023014341       64.0727813775      227.6253142364
H                55.1087194777       61.5544602326      229.1916733449
H                51.5760853725       59.6877222544      227.4090393322
H                54.6120767934       57.8954471874      226.6675778199
H                62.1374205880       63.3493267237      215.8672217118
H                62.5700560542       66.5602726111      216.7255547730
H                60.8517823529       66.5316370728      212.1374320351
H                59.2960872303       69.0808622894      213.6731136383
