 472 
 
N                65.6840000000       53.8530000000      209.4480000000
C                64.7120000000       52.7680000000      209.2970000000
C                64.1540000000       52.3430000000      210.6630000000
O                62.9480000000       52.0740000000      210.7990000000
C                65.3260000000       51.5660000000      208.5590000000
C                65.8010000000       51.9730000000      207.1740000000
C                64.2930000000       50.4490000000      208.5280000000
C                66.5630000000       50.8720000000      206.4640000000
H                66.4740000000       53.6870000000      209.1510000000
H                63.9820000000       53.1080000000      208.7570000000
H                66.1140000000       51.2450000000      209.0250000000
H                65.0300000000       52.2020000000      206.6310000000
H                66.3890000000       52.7400000000      207.2550000000
H                64.6650000000       49.6870000000      208.0570000000
H                64.0710000000       50.1990000000      209.4380000000
H                63.4990000000       50.7660000000      208.0690000000
H                66.7780000000       51.1660000000      205.5650000000
H                67.3790000000       50.6850000000      206.9550000000
H                66.0090000000       50.0760000000      206.4280000000
N                61.6470000000       55.1800000000      212.0780000000
C                60.4070000000       55.2100000000      211.3100000000
C                59.5710000000       53.9750000000      211.5950000000
O                58.3510000000       54.0500000000      211.7880000000
C                60.7520000000       55.3380000000      209.8190000000
C                61.1490000000       56.7920000000      209.5520000000
C                59.6120000000       54.8200000000      208.9360000000
C                61.5810000000       56.9180000000      208.1500000000
H                62.3510000000       55.1540000000      211.5840000000
H                59.8790000000       55.9790000000      211.5780000000
H                61.5070000000       54.7740000000      209.5880000000
H                60.3890000000       57.3750000000      209.7030000000
H                61.8830000000       57.0460000000      210.1330000000
H                59.8510000000       54.9470000000      208.0040000000
H                59.4750000000       53.8770000000      209.1160000000
H                58.8030000000       55.3160000000      209.1400000000
H                61.8400000000       57.8380000000      207.9810000000
H                62.3360000000       56.3290000000      207.9980000000
H                60.8450000000       56.6700000000      207.5690000000
N                60.2120000000       52.8190000000      211.6100000000
C                59.5330000000       51.5920000000      211.9890000000
C                58.8820000000       51.7250000000      213.3720000000
O                57.7820000000       51.2020000000      213.6000000000
C                60.5640000000       50.4710000000      211.9180000000
O                59.9180000000       49.2340000000      211.8650000000
H                61.0410000000       52.7150000000      211.4040000000
H                58.8060000000       51.3800000000      211.3830000000
H                61.1050000000       50.5840000000      211.1210000000
H                61.1270000000       50.5030000000      212.7080000000
H                60.4850000000       48.6150000000      211.8400000000
N                55.8240000000       54.0140000000      213.0720000000
C                54.6670000000       53.3580000000      212.4680000000
C                53.9840000000       52.3880000000      213.4170000000
O                52.7640000000       52.2540000000      213.3910000000
C                55.0230000000       52.5800000000      211.2220000000
S                55.5250000000       53.6510000000      209.9350000000
H                56.5910000000       53.7300000000      212.8050000000
H                54.0660000000       54.0830000000      212.2320000000
H                55.7540000000       51.9730000000      211.4190000000
H                54.2480000000       52.0800000000      210.9220000000
H                56.4660000000       54.2970000000      210.3080000000
N                54.7270000000       51.6480000000      214.2340000000
C                54.0100000000       50.7680000000      215.1600000000
C                53.1140000000       51.5980000000      216.0670000000
O                51.9740000000       51.1850000000      216.3580000000
C                55.0060000000       49.8470000000      215.8830000000
C                55.0400000000       48.4580000000      215.0920000000
C                56.4080000000       47.9930000000      214.5080000000
C                56.2370000000       46.9590000000      213.3690000000
N                57.5360000000       46.4110000000      212.8500000000
H                55.5860000000       51.6350000000      214.2720000000
H                53.4200000000       50.1530000000      214.6970000000
H                55.8920000000       50.2420000000      215.8780000000
H                54.7170000000       49.6920000000      216.7960000000
H                54.7450000000       47.7620000000      215.7000000000
H                54.4260000000       48.5260000000      214.3440000000
H                56.8790000000       48.7620000000      214.1500000000
H                56.9320000000       47.5820000000      215.2130000000
H                55.7130000000       46.2130000000      213.7010000000
H                55.7780000000       47.3840000000      212.6280000000
H                57.3800000000       45.8230000000      212.2000000000
H                58.0380000000       47.0720000000      212.5270000000
H                57.9800000000       46.0060000000      213.5060000000
N                50.8180000000       54.3190000000      213.2490000000
C                50.3720000000       53.7170000000      211.9990000000
C                49.2470000000       52.7540000000      212.3690000000
O                49.4720000000       51.5600000000      212.6440000000
C                51.5310000000       53.0230000000      211.3010000000
S                51.3110000000       53.1860000000      209.6290000000
H                51.4180000000       53.8580000000      213.6580000000
H                50.0230000000       54.3890000000      211.3920000000
H                52.3700000000       53.4390000000      211.5550000000
H                51.5440000000       52.0810000000      211.5320000000
H                52.0400000000       52.4190000000      209.0630000000
N                50.9430000000       48.3840000000      208.6190000000
C                52.2190000000       48.9870000000      209.0670000000
C                53.2570000000       48.3910000000      208.1100000000
O                53.2160000000       47.1750000000      207.8410000000
C                52.4680000000       48.6400000000      210.5340000000
O                53.6490000000       49.2020000000      211.0640000000
H                51.0170000000       47.5540000000      208.4040000000
H                52.2460000000       49.9550000000      209.0050000000
H                51.7170000000       48.9670000000      211.0550000000
H                52.5300000000       47.6750000000      210.6110000000
H                54.0380000000       48.6420000000      211.5540000000
N                54.1500000000       49.2030000000      207.5420000000
C                55.0870000000       48.6990000000      206.5320000000
C                56.2820000000       47.9600000000      207.1000000000
O                56.6550000000       48.1210000000      208.2560000000
C                55.5770000000       49.9670000000      205.8310000000
C                55.3250000000       51.0460000000      206.7430000000
C                54.5190000000       50.5640000000      207.9340000000
H                54.6010000000       48.1160000000      205.9280000000
H                56.5260000000       49.8890000000      205.6450000000
H                55.0860000000       50.0940000000      205.0050000000
H                56.1770000000       51.3960000000      207.0460000000
H                54.8310000000       51.7350000000      206.2730000000
H                55.0590000000       50.5590000000      208.7400000000
H                53.7310000000       51.1140000000      208.0660000000
N                56.9280000000       47.1780000000      206.2400000000
C                58.0380000000       46.3360000000      206.6700000000
C                59.3540000000       47.0990000000      206.5790000000
O                59.5090000000       48.0440000000      205.7890000000
C                58.1610000000       45.0660000000      205.8200000000
O                59.0170000000       45.2600000000      204.6820000000
H                56.7410000000       47.1180000000      205.4020000000
H                57.8710000000       46.0730000000      207.5890000000
H                58.5320000000       44.3590000000      206.3700000000
H                57.2790000000       44.8150000000      205.5060000000
H                59.0940000000       44.5410000000      204.2540000000
N                60.3180000000       46.6640000000      207.3850000000
C                61.6100000000       47.3300000000      207.3530000000
C                62.2410000000       47.2420000000      205.9630000000
O                62.8350000000       48.2170000000      205.4890000000
C                62.5120000000       46.7450000000      208.4440000000
C                62.1600000000       47.2370000000      209.8980000000
C                61.8370000000       46.0640000000      210.8400000000
C                60.3980000000       45.5200000000      210.6070000000
N                60.1160000000       44.2790000000      211.3950000000
H                60.2510000000       46.0090000000      207.9390000000
H                61.5020000000       48.2740000000      207.5480000000
H                62.4280000000       45.7780000000      208.4310000000
H                63.4290000000       47.0010000000      208.2590000000
H                62.9170000000       47.7210000000      210.2630000000
H                61.3830000000       47.8170000000      209.8590000000
H                62.4650000000       45.3420000000      210.6800000000
H                61.9040000000       46.3630000000      211.7600000000
H                59.7570000000       46.1970000000      210.8730000000
H                60.2870000000       45.3100000000      209.6660000000
H                59.2820000000       44.0060000000      211.2450000000
H                60.6790000000       43.6320000000      211.1570000000
H                60.2140000000       44.4420000000      212.2640000000
N                62.1050000000       46.0910000000      205.2880000000
C                62.5410000000       45.9520000000      203.8910000000
C                61.9400000000       47.0660000000      203.0320000000
O                62.6630000000       47.7670000000      202.3050000000
C                62.1460000000       44.5390000000      203.3870000000
C                62.2830000000       44.1210000000      201.8710000000
C                63.7020000000       44.1560000000      201.2700000000
C                64.6570000000       43.0580000000      201.7760000000
N                64.5000000000       41.7050000000      201.1470000000
H                61.7620000000       45.3740000000      205.6170000000
H                63.5060000000       46.0290000000      203.8220000000
H                62.6880000000       43.9040000000      203.8820000000
H                61.2090000000       44.4160000000      203.6060000000
H                61.9590000000       43.2110000000      201.7780000000
H                61.7370000000       44.7230000000      201.3420000000
H                63.6310000000       44.0560000000      200.3080000000
H                64.1060000000       45.0120000000      201.4860000000
H                65.5670000000       43.3470000000      201.6080000000
H                64.5140000000       42.9490000000      202.7290000000
H                65.1230000000       41.1510000000      201.4580000000
H                63.6960000000       41.3720000000      201.3380000000
H                64.5840000000       41.7680000000      200.2640000000
N                60.6150000000       47.2850000000      203.1640000000
C                59.8820000000       48.2230000000      202.3060000000
C                60.2690000000       49.6750000000      202.5940000000
O                60.2920000000       50.5040000000      201.6670000000
C                58.3710000000       48.0350000000      202.5220000000
C                57.8270000000       46.6470000000      202.1630000000
C                56.3740000000       46.4630000000      202.6010000000
O                55.9680000000       47.1560000000      203.5590000000
O                55.6510000000       45.6410000000      202.0020000000
H                60.1170000000       46.8960000000      203.7480000000
H                60.1010000000       48.0340000000      201.3800000000
H                58.1740000000       48.1900000000      203.4590000000
H                57.9000000000       48.6810000000      201.9730000000
H                57.8700000000       46.5280000000      201.2020000000
H                58.3630000000       45.9710000000      202.6060000000
N                60.5410000000       49.9900000000      203.8790000000
C                60.9680000000       51.3290000000      204.2860000000
C                62.3180000000       51.6590000000      203.6780000000
O                62.5150000000       52.7350000000      203.1000000000
C                61.0110000000       51.4330000000      205.8190000000
C                59.5790000000       51.2600000000      206.3480000000
C                61.6150000000       52.7420000000      206.2680000000
C                59.5020000000       50.9610000000      207.7810000000
H                60.4840000000       49.4350000000      204.5340000000
H                60.3210000000       51.9710000000      203.9540000000
H                61.5800000000       50.7330000000      206.1770000000
H                59.0890000000       52.0830000000      206.1920000000
H                59.1580000000       50.5280000000      205.8710000000
H                61.5790000000       52.7910000000      207.2360000000
H                62.5360000000       52.7840000000      205.9680000000
H                61.1070000000       53.4730000000      205.8810000000
H                58.5700000000       50.8790000000      208.0370000000
H                59.9670000000       50.1280000000      207.9550000000
H                59.9190000000       51.6830000000      208.2770000000
N                63.2700000000       50.7300000000      203.7990000000
C                64.5740000000       50.9140000000      203.1710000000
C                64.5060000000       51.0250000000      201.6630000000
O                65.2250000000       51.8300000000      201.0590000000
H                63.1860000000       49.9940000000      204.2360000000
H                64.9800000000       51.7250000000      203.5150000000
H                65.1410000000       50.1580000000      203.3920000000
N                63.6390000000       50.2210000000      201.0360000000
C                63.4010000000       50.3430000000      199.5970000000
C                63.0220000000       51.7700000000      199.2360000000
O                63.6040000000       52.3790000000      198.3150000000
C                62.2990000000       49.3680000000      199.1650000000
H                63.1800000000       49.6030000000      201.4190000000
H                64.2120000000       50.1100000000      199.1190000000
H                62.1700000000       49.4420000000      198.2070000000
H                62.5700000000       48.4650000000      199.3930000000
H                61.4780000000       49.5940000000      199.6280000000
N                62.0220000000       52.3070000000      199.9600000000
C                61.6310000000       53.7090000000      199.8240000000
C                62.8180000000       54.6400000000      200.0590000000
O                63.1770000000       55.4560000000      199.1900000000
C                60.5120000000       54.0490000000      200.7950000000
C                60.0470000000       55.4680000000      200.6570000000
S                58.8460000000       55.9340000000      201.9320000000
C                59.9500000000       56.0350000000      203.2870000000
H                61.5550000000       51.8730000000      200.5380000000
H                61.2980000000       53.8320000000      198.9210000000
H                59.7560000000       53.4660000000      200.6240000000
H                60.8300000000       53.9230000000      201.7030000000
H                60.8110000000       56.0610000000      200.7330000000
H                59.6250000000       55.5810000000      199.7910000000
H                59.4560000000       56.3050000000      204.0770000000
H                60.3540000000       55.1650000000      203.4310000000
H                60.6370000000       56.6900000000      203.0860000000
N                63.4340000000       54.5390000000      201.2390000000
C                64.5550000000       55.4150000000      201.5390000000
C                65.6380000000       55.3510000000      200.4750000000
O                66.1660000000       56.3930000000      200.0590000000
C                65.1500000000       55.1020000000      202.8900000000
C                64.4250000000       55.7640000000      204.0380000000
C                65.0580000000       55.2230000000      205.3310000000
C                64.5390000000       57.2550000000      203.9160000000
H                63.2250000000       53.9860000000      201.8640000000
H                64.2040000000       56.3190000000      201.5620000000
H                65.1160000000       54.1420000000      203.0310000000
H                66.0710000000       55.4060000000      202.9040000000
H                63.4740000000       55.5700000000      204.0460000000
H                64.6140000000       55.6260000000      206.0930000000
H                64.9500000000       54.2600000000      205.3560000000
H                66.0010000000       55.4510000000      205.3390000000
H                64.1540000000       57.6670000000      204.7050000000
H                65.4760000000       57.4950000000      203.8420000000
H                64.0600000000       57.5440000000      203.1240000000
N                64.2200000000       63.3610000000      205.6930000000
C                62.8560000000       62.9130000000      205.4540000000
C                61.9430000000       63.2340000000      206.6140000000
O                60.7290000000       63.1080000000      206.4780000000
C                62.8490000000       61.4130000000      205.1840000000
C                61.5120000000       60.8240000000      204.9710000000
C                61.6380000000       59.7550000000      204.0030000000
C                61.0710000000       60.1450000000      206.0800000000
H                64.7530000000       62.7260000000      205.9200000000
H                62.5020000000       63.3530000000      204.6650000000
H                63.3730000000       61.2430000000      204.3860000000
H                63.2480000000       60.9630000000      205.9460000000
H                60.9170000000       61.5480000000      204.7220000000
H                60.7780000000       59.3190000000      203.9010000000
H                61.9220000000       60.1300000000      203.1550000000
H                62.2970000000       59.1180000000      204.3200000000
H                60.2070000000       59.7500000000      205.8860000000
H                61.7110000000       59.4500000000      206.3000000000
H                60.9920000000       60.7670000000      206.8200000000
N                54.9580000000       50.6960000000      194.5120000000
C                55.1950000000       50.1150000000      195.8240000000
C                55.7830000000       51.1050000000      196.8130000000
O                55.3870000000       51.1410000000      197.9730000000
H                55.4420000000       50.3730000000      193.8790000000
H                54.3550000000       49.7890000000      196.1850000000
H                55.8110000000       49.3710000000      195.7370000000
N                56.7580000000       51.8940000000      196.3780000000
C                57.3370000000       52.9100000000      197.2450000000
C                56.3230000000       53.9960000000      197.5930000000
O                56.1900000000       54.3740000000      198.7530000000
C                58.6180000000       53.4660000000      196.5860000000
C                59.6730000000       52.3890000000      196.1600000000
C                59.4580000000       51.7890000000      194.7860000000
O                58.7020000000       52.3300000000      193.9350000000
O                59.9960000000       50.6900000000      194.5800000000
H                57.1020000000       51.8610000000      195.5900000000
H                57.6010000000       52.5170000000      198.0920000000
H                58.3640000000       53.9540000000      195.7870000000
H                59.0510000000       54.0630000000      197.2150000000
H                60.5510000000       52.8010000000      196.1620000000
H                59.6470000000       51.6620000000      196.8020000000
N                53.2680000000       53.5260000000      197.9960000000
C                52.3580000000       52.9670000000      199.0050000000
C                52.9640000000       53.0290000000      200.4080000000
O                52.2790000000       53.4000000000      201.3730000000
C                52.0100000000       51.5380000000      198.6360000000
C                50.9130000000       51.4180000000      197.5670000000
C                50.9610000000       50.0200000000      196.8610000000
C                49.5560000000       49.4830000000      196.5900000000
N                49.5310000000       48.4290000000      195.5450000000
H                53.5840000000       52.9560000000      197.4350000000
H                51.5430000000       53.4930000000      199.0160000000
H                52.8060000000       51.1030000000      198.2910000000
H                51.6990000000       51.0780000000      199.4310000000
H                50.0430000000       51.5210000000      197.9850000000
H                51.0410000000       52.1050000000      196.8950000000
H                51.4240000000       50.1040000000      196.0130000000
H                51.4240000000       49.3880000000      197.4320000000
H                49.2010000000       49.1010000000      197.4080000000
H                48.9910000000       50.2120000000      196.2920000000
H                48.6960000000       48.1540000000      195.4090000000
H                49.8570000000       48.7500000000      194.7810000000
H                50.0260000000       47.7340000000      195.8000000000
N                54.2560000000       52.6790000000      200.5220000000
C                55.0240000000       52.8550000000      201.7530000000
C                55.0020000000       54.3050000000      202.2400000000
O                54.7690000000       54.5870000000      203.4290000000
C                56.4910000000       52.4270000000      201.5480000000
O                56.6310000000       51.1570000000      200.8910000000
C                57.1930000000       52.3100000000      202.8720000000
H                54.7170000000       52.3310000000      199.8850000000
H                54.6160000000       52.2870000000      202.4250000000
H                56.8950000000       53.1090000000      200.9890000000
H                57.4440000000       50.9570000000      200.8220000000
H                58.1160000000       52.0450000000      202.7360000000
H                57.1750000000       53.1630000000      203.3340000000
H                56.7520000000       51.6440000000      203.4240000000
N                55.2980000000       55.2390000000      201.3480000000
C                55.3670000000       56.6290000000      201.7650000000
C                54.0530000000       57.1220000000      202.3230000000
O                54.0400000000       57.8960000000      203.2840000000
C                55.7470000000       57.4850000000      200.6030000000
C                55.5740000000       58.9130000000      200.8250000000
C                54.8060000000       59.7810000000      200.0940000000
C                56.2050000000       59.6820000000      201.8160000000
N                54.9670000000       61.0480000000      200.5540000000
C                55.8020000000       61.0160000000      201.6350000000
C                57.1000000000       59.3850000000      202.8220000000
C                56.2390000000       62.0460000000      202.4520000000
C                57.5510000000       60.4090000000      203.6220000000
C                57.1030000000       61.7230000000      203.4440000000
H                55.4590000000       55.0980000000      200.5150000000
H                56.0410000000       56.6970000000      202.4590000000
H                56.6830000000       57.3320000000      200.3980000000
H                55.1970000000       57.2380000000      199.8430000000
H                54.2540000000       59.5370000000      199.3860000000
H                54.6040000000       61.7530000000      200.2200000000
H                57.3920000000       58.5120000000      202.9570000000
H                55.9530000000       62.9220000000      202.3240000000
H                58.1670000000       60.2240000000      204.2940000000
H                57.4050000000       62.3880000000      204.0200000000
N                52.9370000000       56.6920000000      201.7230000000
C                51.6200000000       57.0540000000      202.2380000000
C                51.3740000000       56.5760000000      203.6620000000
O                50.8680000000       57.3350000000      204.4950000000
H                52.9180000000       56.1950000000      201.0210000000
H                51.5290000000       58.0190000000      202.2240000000
H                50.9390000000       56.6640000000      201.6670000000
N                51.7090000000       55.3020000000      203.9540000000
C                51.7290000000       54.8270000000      205.3420000000
C                52.6510000000       55.6670000000      206.2160000000
O                52.2580000000       56.1130000000      207.3090000000
C                52.1890000000       53.3810000000      205.4410000000
C                51.1750000000       52.3680000000      204.9920000000
C                51.9750000000       51.1260000000      204.6590000000
C                50.1640000000       52.0070000000      206.0070000000
H                51.9260000000       54.7070000000      203.3730000000
H                50.8150000000       54.8920000000      205.6580000000
H                52.9780000000       53.2700000000      204.8880000000
H                52.4040000000       53.1890000000      206.3670000000
H                50.6680000000       52.7360000000      204.2520000000
H                51.3700000000       50.4350000000      204.3480000000
H                52.6170000000       51.3410000000      203.9650000000
H                52.4380000000       50.8260000000      205.4570000000
H                49.5650000000       51.3420000000      205.6330000000
H                50.6140000000       51.6450000000      206.7860000000
H                49.6650000000       52.8020000000      206.2520000000
N                53.9080000000       55.8480000000      205.7810000000
C                54.8830000000       56.5060000000      206.6460000000
C                54.4590000000       57.9220000000      206.9510000000
O                54.4880000000       58.3330000000      208.1110000000
C                56.2790000000       56.4860000000      206.0280000000
C                57.1460000000       57.4620000000      206.7740000000
C                56.7880000000       55.1000000000      206.1080000000
H                54.2080000000       55.6040000000      205.0120000000
H                54.9110000000       56.0060000000      207.4770000000
H                56.2780000000       56.7530000000      205.0960000000
H                58.0590000000       57.3790000000      206.4580000000
H                56.8200000000       58.3610000000      206.6120000000
H                57.1040000000       57.2610000000      207.7220000000
H                57.6530000000       55.0560000000      205.6700000000
H                56.8770000000       54.8500000000      207.0410000000
H                56.1620000000       54.5080000000      205.6640000000
N                54.0780000000       58.6880000000      205.9090000000
C                53.6990000000       60.0860000000      206.1050000000
C                52.5060000000       60.1750000000      207.0350000000
O                52.4170000000       61.0870000000      207.8690000000
C                53.3620000000       60.7810000000      204.7840000000
C                52.8920000000       62.2280000000      204.9140000000
C                53.7840000000       63.1590000000      205.5540000000
C                52.7050000000       62.8020000000      203.5700000000
H                54.0330000000       58.4200000000      205.0930000000
H                54.4620000000       60.5490000000      206.4850000000
H                54.1560000000       60.7820000000      204.2280000000
H                52.6520000000       60.2830000000      204.3490000000
H                52.0960000000       62.1500000000      205.4620000000
H                53.3810000000       64.0410000000      205.5420000000
H                53.9320000000       62.8750000000      206.4700000000
H                54.6250000000       63.1730000000      205.0720000000
H                52.4410000000       63.7320000000      203.6580000000
H                53.5400000000       62.7400000000      203.0810000000
H                52.0130000000       62.3040000000      203.1080000000
N                51.9040000000       58.4450000000      209.5950000000
C                52.5000000000       58.4120000000      210.9280000000
C                53.1660000000       59.7360000000      211.2580000000
O                52.8310000000       60.3770000000      212.2440000000
C                53.5220000000       57.2780000000      211.0410000000
H                52.2770000000       57.8990000000      209.0450000000
H                51.7890000000       58.2450000000      211.5670000000
H                53.8750000000       57.2600000000      211.9440000000
H                53.0840000000       56.4370000000      210.8400000000
H                54.2410000000       57.4370000000      210.4090000000
N                54.1400000000       60.1560000000      210.4700000000
C                54.7500000000       61.4500000000      210.7420000000
C                53.7330000000       62.5350000000      211.1040000000
O                53.9150000000       63.2630000000      212.0900000000
C                55.5530000000       61.9050000000      209.5360000000
C                56.6130000000       60.9070000000      209.0760000000
C                57.2050000000       61.4220000000      207.7850000000
C                57.6050000000       60.7990000000      210.1220000000
H                54.4560000000       59.7280000000      209.7940000000
H                55.3390000000       61.3300000000      211.5030000000
H                54.9430000000       62.0500000000      208.7950000000
H                56.0050000000       62.7340000000      209.7600000000
H                56.2530000000       60.0210000000      208.9100000000
H                57.8720000000       60.7920000000      207.4690000000
H                56.4980000000       61.5130000000      207.1270000000
H                57.6170000000       62.2850000000      207.9490000000
H                58.3200000000       60.2180000000      209.8200000000
H                57.9550000000       61.6820000000      210.3170000000
H                57.1880000000       60.4260000000      210.9150000000
O                57.2130000000       48.7760000000      210.9550000000
H                57.9550000000       49.0840000000      210.7120000000
H                56.6330000000       49.3260000000      210.6770000000
H                65.3940288579       54.5800923148      209.0038676970
H                64.7624324950       52.2804221526      211.4541345727
H                61.7013943088       55.9183779101      212.5897023755
H                59.3455866118       52.2361105576      214.0957772111
H                55.8006724970       54.8944688013      212.8869850882
H                53.4398229898       52.4718597494      216.4278441736
H                51.1697228515       55.1306032458      213.0828939880
H                48.3008838615       53.0767752074      212.3950848217
H                50.3356446590       48.4397998210      209.2808201189
H                65.9268913751       54.4667097370      200.1081587480
H                64.5491450256       63.7347963601      204.9433735375
H                62.3286082137       63.5458126549      207.4823773222
H                54.1003094828       50.5619144231      194.2745383509
H                55.7613635309       54.4047039457      196.8736075053
H                52.8343299792       54.1491367406      197.5126461797
H                51.7774296253       59.4922085129      206.9804015177
H                51.0332589188       58.2240465473      209.6496766979
H                52.9145909684       62.6603095943      210.5431932931
