 227 
 
N                27.8001050778       24.7638119455       85.0419691876
C                27.2964287138       23.4217868994       85.1342869390
C                26.0481763237       23.2339770078       84.2754192881
O                25.8889615050       22.2448838686       83.5977839171
C                26.9614793687       23.0482892925       86.5818372577
C                26.3792139228       21.6538693246       86.6840928109
C                27.1033463722       20.5466867184       86.2598535451
C                25.1089360511       21.4506480330       87.1884973181
C                26.5553649149       19.2724802979       86.3244678525
C                24.5761561465       20.1767254805       87.3030676220
C                25.2825632511       19.0847880380       86.8545519031
H                27.2540940627       25.4898858006       85.5006939533
H                28.0768857977       22.7593019363       84.7530572910
H                27.8856379963       23.1066085570       87.1729559207
H                26.2577026968       23.7760547711       86.9825973928
H                28.0984638876       20.6748572876       85.8674104717
H                24.5403272167       22.3023758173       87.5630962865
H                27.1118135944       18.4240814859       85.9541631380
H                23.6009914469       20.0466112737       87.7536969436
H                24.8716596430       18.0952001256       86.9376419788
N                23.3229403151       23.7091759490       81.3303379461
C                23.1957754022       24.1221345248       79.8576641990
C                22.4150981082       25.4305376616       79.7317137359
O                21.9117418207       26.0087072543       80.6547304549
C                22.3997021652       22.9569008993       79.1498246076
C                21.5218012798       22.4577217731       80.3271504485
C                22.4016015798       22.6538905304       81.6926814876
H                24.2219410417       24.2211830004       79.4997551406
H                21.8578667393       23.2772365618       78.3483408758
H                23.1217878800       22.1526268975       78.9035368975
H                20.6523502666       23.0700089090       80.4125275254
H                21.2554731246       21.4078770127       80.2252012050
H                21.7513634350       22.9208159284       82.4654413239
H                22.9474076763       21.7349988231       81.8735980388
N                12.9485515365       24.0361349622       83.9019293431
C                13.6788414863       22.8275831745       84.1863702884
C                13.3314956642       21.7067230543       83.2058394394
O                14.1907398995       20.9863842689       82.7350174327
C                13.3893784835       22.3480751250       85.5545555099
C                14.3194811943       21.2051551221       85.9621275137
C                14.2759862288       20.8192065522       87.4983986491
N                14.7298308195       21.9267900089       88.2760136332
C                14.9353209142       21.8795207891       89.5665482231
N                14.7391306634       20.8206968010       90.2061982162
N                15.2917223180       23.0523713010       90.1582940140
H                12.3062714819       24.4004218006       84.6213888628
H                14.7403701306       23.0255127246       84.0558658931
H                13.4950470374       23.1962879697       86.2688407699
H                12.3372838985       22.0148899040       85.6508286005
H                14.0657306597       20.3165202057       85.3965340563
H                15.3461152139       21.4559163741       85.7400964383
H                13.2261602797       20.5743042692       87.7474691429
H                14.9075692192       19.9704079631       87.6082780013
H                14.9287835237       22.8051422672       87.7655831764
H                14.6699173581       19.9042787594       89.7891512167
H                14.9850898667       20.7616233710       91.2429980166
H                15.2109075321       23.9321519540       89.6973616710
H                15.2359141701       23.0812181441       91.1956397329
N                15.2764790905       21.4337595870       80.1587458739
C                16.6562586902       21.0146185112       80.3428327070
C                16.7336516320       19.4753452176       80.6003475594
O                15.8060772718       18.7703961570       80.8299621282
C                17.2767501163       21.8027488657       81.4424178744
C                17.2348922808       23.2960040988       81.1824386066
S                18.2021005003       24.2313401870       82.4834461079
C                17.0792716952       25.5441492126       82.9094091856
H                14.6735605847       21.2488567364       80.9393336722
H                17.1599197774       21.2205740354       79.3777149066
H                16.7203935046       21.5913241426       82.3804018470
H                18.3136676273       21.4930531829       81.6061247838
H                17.6831824294       23.5303295048       80.2236122943
H                16.2189990325       23.6749053524       81.2301320478
H                17.4430933328       25.9869982828       83.8247470946
H                17.0930107820       26.2939469634       82.1115973565
H                16.0895275785       25.1320690793       83.0317609240
N                17.9899356390       18.9753674981       80.4769398209
C                18.1838810145       17.6002437115       80.0661354493
C                18.5002752844       16.7205709429       81.2480380141
O                19.6082849766       16.7306699905       81.7825110590
C                19.2575312236       17.5280043996       78.9557853666
C                20.6393843560       17.9888936343       79.4043444078
C                19.3247224975       16.1049619861       78.3989788054
H                18.7451578427       19.6121602358       80.2538285963
H                17.2304515265       17.2613761006       79.6378414399
H                18.9107113241       18.1988324479       78.1581220673
H                21.3014231512       18.0385137705       78.5448327867
H                20.6173307608       18.9675171105       79.8746864957
H                21.0566887970       17.2799319920       80.1264868335
H                20.0330859055       16.0745284601       77.5676453892
H                19.6713697122       15.4192166613       79.1618389116
H                18.3593121878       15.7819745540       78.0332410249
N                17.4893638309       15.9441765093       81.6631590057
C                17.5777686911       14.9132896032       82.7200522961
C                17.8980334277       15.5184738645       84.1225338680
O                18.4431430711       14.8437713667       85.0007283739
C                18.6033205103       13.7817724920       82.4135372313
C                18.1082137819       12.6086137658       81.5529894267
C                18.0183612393       12.9766786367       80.0581613841
C                19.0555252937       11.4232059562       81.7389638923
H                16.5963459068       16.0320927992       81.2222274359
H                16.5872197488       14.4584740247       82.8100935167
H                19.4680583573       14.2458366809       81.9307414698
H                18.8958785329       13.4001195752       83.3831858927
H                17.1073093084       12.3310828206       81.9047866117
H                17.6223539615       12.1418984804       79.5081447808
H                17.3618698124       13.8370964778       79.9148904258
H                19.0032804864       13.2196379825       79.6864839231
H                18.7171016700       10.5929878575       81.1275494324
H                20.0587180827       11.6940778455       81.4190254072
H                19.0822222320       11.1115233065       82.7713985087
N                17.5102178847       16.7914548788       84.3252683287
C                17.9653460852       17.5364544531       85.4732579928
C                16.8573201599       17.7738746592       86.5281603309
O                16.3986715832       18.8977341493       86.7494273280
C                18.5540356416       18.8993521839       85.0255434739
C                19.6713173452       18.8076747983       84.0171521925
C                21.0545402730       18.4225002390       84.5724889196
N                21.0867931419       17.1912537044       85.3925055392
C                21.2516158246       15.9913269411       85.0210842576
N                21.3330870943       15.5883062550       83.7168697046
N                21.4491533222       14.9812640247       85.9914661812
H                17.0171836441       17.2954615682       83.6035432891
H                18.7113040198       16.9188786932       85.9811480853
H                17.7296628249       19.4719337976       84.6152906828
H                18.8855910812       19.4062810088       85.9419054997
H                19.3934750560       18.0909900838       83.2402913566
H                19.7997806945       19.7719563804       83.5618580239
H                21.7382768990       18.2659566314       83.7332875692
H                21.4353143615       19.2005181716       85.2048571140
H                21.0549731676       17.3470231755       86.3985979303
H                20.8886238451       16.1793027288       83.0330263057
H                21.4353739008       14.6217759910       83.5026436732
H                21.4741955333       15.3159815692       86.9522117223
H                21.4905522594       14.0645909486       85.7431223979
N                16.4280155343       16.6727308901       87.2120002622
C                15.4533101507       16.8304778799       88.2440083124
C                15.9965604731       16.7780471190       89.6812141867
O                15.3895806101       17.3174519024       90.5964643381
C                14.3300861181       15.7968562163       88.0796927458
H                16.8835094145       15.8084733307       87.0525020987
H                15.0280576801       17.8402886433       88.1310378755
H                13.5931962592       15.9652837258       88.8886832647
H                13.8384886429       15.9446441581       87.1358401457
H                14.7167696434       14.8035199498       88.1714265433
N                17.1161579679       16.0483689061       89.8575309383
C                17.7101420669       15.8127649281       91.1815912180
C                18.8322309660       16.7812818765       91.5339306631
O                19.6841619246       16.5176291573       92.3951866791
C                18.1800928418       14.3301059048       91.2770823422
O                18.6810052818       14.0469803431       92.5486792008
C                19.1881549115       13.9733476638       90.1838264090
H                17.7582030501       15.9440472284       89.0879981729
H                16.9220333928       15.9739136094       91.9258392741
H                17.2846786059       13.6845852526       91.1550727641
H                19.3253739012       14.7117960975       92.7805815248
H                19.5769372400       12.9814596250       90.3873977989
H                18.7289782940       13.9667919148       89.1944973741
H                20.0102729239       14.6824520406       90.1769947745
N                18.7830032339       17.9489658026       90.9208052834
C                19.7547879567       19.0227203618       91.0866502732
C                18.9753606892       20.3253033620       90.7505471636
O                18.3104243715       20.4581739798       89.7028628422
C                20.9905741493       18.8774024603       90.1725443527
C                20.6164946585       18.6324454459       88.6941053203
C                20.3420133684       17.1227720526       88.3812187764
O                21.3426230577       16.3766964814       88.2785779471
O                19.1349581554       16.7473990768       88.1739822876
H                18.1965784511       18.0588347492       90.0840385974
H                20.0745237768       19.0013746971       92.1219002362
H                21.5657152465       19.7876778583       90.2446453317
H                21.5823000048       18.0343659793       90.5228234484
H                19.7385184133       19.2193939571       88.4192165227
H                21.4587145093       18.9291723770       88.0690614794
N                18.9913280881       21.2406623541       91.7300846818
C                18.3103634922       22.4987195794       91.5735415442
C                19.2131480049       23.5944057649       91.0220750705
O                20.4390211888       23.6057651810       91.0966158900
C                17.7527867640       23.0020002967       92.8956842549
H                19.6767342386       21.1531979008       92.4876361845
H                17.5236347430       22.2971954496       90.8530408020
H                17.1731974277       23.8857504150       92.7849257643
H                17.1173198271       22.2053198916       93.3622943256
H                18.5648459416       23.1827213424       93.6031696594
N                18.4956045390       24.5832920327       90.4498535362
C                19.0568329343       25.8363147676       90.2145196211
C                18.0233561523       26.8730274007       90.6365415999
O                16.8577544333       26.5308740801       90.6973556311
C                19.3853348918       25.9703364703       88.7248585529
C                18.1464369349       25.8615730304       87.8424768039
C                17.6884260614       24.6268583395       87.4368656520
C                17.4515810854       27.0078685833       87.4391272534
C                16.5665251207       24.5331517715       86.6273620153
C                16.3097802990       26.8916945633       86.6564792784
C                15.8841771176       25.6788443406       86.2500799744
H                17.4968777610       24.5739011335       90.5163731534
H                19.9832362092       26.0033978868       90.7678961599
H                19.8711182902       26.9522670269       88.5256667743
H                20.0817980074       25.1829849337       88.4561320321
H                18.2440243055       23.7302046941       87.7212406771
H                17.8139316878       27.9642792941       87.7918399154
H                16.2644220183       23.5539597239       86.2755595145
H                15.8034452793       27.7947230896       86.3696352391
H                15.0021320231       25.5778633187       85.6418804762
N                27.7757190710       13.8693915724       82.8335964676
C                27.5530665555       14.1221588638       81.4208818206
C                28.6105365474       15.0996663633       80.8129959822
O                28.3614399360       15.7809004129       79.8027651670
C                26.1338862482       14.6833633142       81.2122736095
C                25.8234655931       15.9027867428       82.1005307554
O                26.3089746920       16.0504174474       83.2632454264
N                24.9823637738       16.7579984466       81.5300609987
H                27.4321996169       14.5910722612       83.4459242531
H                27.6575831595       13.1880222986       80.8835781847
H                26.0269579999       14.9726839288       80.1728093877
H                25.4159553729       13.9220069338       81.4621762442
H                24.6600576194       17.5734365095       82.1385428679
H                24.5697423254       16.6340443093       80.6818400489
H                28.6191342288       24.8034932105       85.4129363654
H                25.3382754971       23.9381915487       84.2643424316
H                24.1931444853       23.6626176511       81.5552313146
H                22.2980165575       25.8586418368       78.8356006149
H                13.5274864208       24.7077846498       83.7479127954
H                12.3801902260       21.5532184936       82.9385300439
H                15.2489486415       22.3216560785       80.0142401827
H                18.3108736259       27.8056637627       90.8545395784
H                27.3620817911       13.1061704700       83.0710785709
H                29.5117591121       15.1880807255       81.2372374104
