 539 
 
N                 9.3582162100       38.1210354923        6.1098422082
C                 9.1363902202       38.7035898388        7.4351737485
C                10.4184129432       39.3040085612        8.0053346792
O                10.4185664376       40.3768464096        8.6034786332
C                 8.6304130472       37.6694245840        8.4192337434
C                 7.2492533081       37.1194121704        8.0851828235
C                 6.1288487198       38.1363190222        8.1087983432
N                 4.9502014714       37.5046770276        7.5889799379
C                 4.0198080372       36.9431031369        8.3517352986
N                 4.1536897900       36.9418848321        9.6838032653
N                 2.9834674000       36.3685382665        7.7473862001
H                 9.1917944419       37.1322008661        5.9766121376
H                 8.4267805045       39.5298021934        7.3267563321
H                 9.3484085226       36.8486169646        8.4505697943
H                 8.5878028441       38.1380063971        9.4038722420
H                 7.2738736200       36.6557277488        7.0982536507
H                 7.0182781132       36.3455313014        8.8168170347
H                 5.9780337014       38.5380844122        9.1091716306
H                 6.3548458839       38.9799004599        7.4517705173
H                 4.8755555793       37.4620369416        6.5768317704
H                 4.8805670783       37.4658675665       10.1590986853
H                 3.3238753870       36.7265385827       10.2150948053
H                 2.8390051557       36.4878011015        6.7481084245
H                 2.1912550762       36.1334884053        8.3341229339
N                10.5640770242       36.4608393230       18.5457319979
C                 9.2903102784       37.1864873846       18.5179898415
C                 8.5867124647       37.1636850389       17.1520656930
O                 7.3777783514       36.9958775274       17.1235351941
C                 9.4889231858       38.6277826962       18.9859160946
O                10.0089158039       38.5859584406       20.2988654903
C                 8.2293722303       39.4744242529       18.8687085138
H                11.4065992750       36.9879461535       18.7459565645
H                 8.6036037647       36.6798838326       19.2126869988
H                10.2781533003       39.0747725217       18.3667893382
H                 9.3160300304       38.3061329640       20.9287784036
H                 8.4057933199       40.4546552278       19.3006979274
H                 7.9551523701       39.5987197877       17.8274769607
H                 7.4020770564       39.0113949879       19.3997753888
N                 9.3696801669       37.3388602326       16.0762564828
C                 8.7841214501       37.2292726655       14.7053320488
C                 8.2562643837       35.8119821772       14.4523088887
O                 7.1912994859       35.6039072693       13.8446718339
C                 9.8239688327       37.6654678068       13.6841201727
C                10.0155295268       39.2067991087       13.7409032322
C                 9.5095762389       37.2197395433       12.2596421610
C                11.2605356387       39.5857099999       12.9371438532
H                10.3532445719       37.5577648903       16.1875325716
H                 7.9065688422       37.8855051622       14.6560948423
H                10.7684914878       37.1963749701       13.9814468338
H                 9.1326448491       39.6907368267       13.3253580045
H                10.1482877041       39.5062092029       14.7795927895
H                10.3705463607       37.3748030833       11.6180233268
H                 9.2559478896       36.1658096122       12.2284934726
H                 8.6705386960       37.7841081074       11.8589192924
H                11.5052613807       40.6319575508       13.1015317677
H                12.1083626153       38.9775347848       13.2392211407
H                11.0987207339       39.4510762195       11.8722741702
N                 8.9988625798       34.8039715218       14.9063550997
C                 8.4907168648       33.4416812910       14.7252937005
C                 7.1988560825       33.1727456371       15.5196816573
O                 6.3620436026       32.3934823242       15.0671751589
C                 9.4950818345       32.3694936413       15.1375075878
C                10.8616365653       32.4298678668       14.4016228855
C                11.7605382629       31.2665733711       14.8472422563
C                10.6597909977       32.4544000189       12.9019046132
H                 9.9218718944       34.9475904293       15.3032770729
H                 8.2215425076       33.3216250606       13.6704033003
H                 9.6627289629       32.4524062999       16.2127166526
H                 9.0266023244       31.4049454391       14.9333362212
H                11.3643748913       33.3550692797       14.6910773974
H                12.7029031243       31.3112875138       14.3110979000
H                11.9461579523       31.3173234999       15.9151377065
H                11.2913722130       30.3088347021       14.6278761378
H                11.5748950375       32.1735804383       12.3832595499
H                 9.8705836303       31.7773712237       12.5915426226
H                10.4047206154       33.4595221216       12.5859902081
N                 7.0899265742       33.7863368518       16.6826059560
C                 5.9993719199       33.5885461805       17.6234323702
C                 6.2832274204       32.4515201007       18.5677666684
O                 7.2761407126       31.7059226281       18.4736956009
H                 7.9028296164       34.2646339483       17.0607232477
H                 5.8603049287       34.5128400029       18.1835885944
H                 5.0872833678       33.3696425045       17.0600449209
N                 5.3206892613       32.2222471116       19.4636488871
C                 5.5751181174       31.1987645123       20.4894343050
C                 5.8863979050       29.8507559614       19.8294970367
O                 5.3862654058       29.4596175777       18.7951578957
C                 4.3557793215       30.9686102382       21.3831696535
H                 4.5756222726       32.8952808113       19.6026186518
H                 6.4367931343       31.5122794791       21.0883285829
H                 4.6061221518       30.2471977020       22.1556967010
H                 4.0488980135       31.8971805313       21.8567254498
H                 3.5267113584       30.5736280710       20.8002391100
N                 4.9532697255       26.8651047330       20.6445511880
C                 3.6427530546       26.2282749660       20.4422605600
C                 2.7272828983       27.2245014333       19.6889017627
O                 2.3671575755       28.2728081525       20.2358576385
C                 2.9947059310       25.9395678903       21.7837850671
C                 1.7981470269       25.0439240070       21.5826406748
O                 1.0930682898       25.0349813878       20.5672106862
N                 1.5343311357       24.2456654440       22.6160225529
H                 5.0195763287       27.5137488733       21.4276829628
H                 3.7945665382       25.3224745084       19.8592552671
H                 3.7113679475       25.4633541933       22.4504616464
H                 2.6688350005       26.8819445691       22.2320259376
H                 0.7559680892       23.6031651837       22.5664923102
H                 2.1056505334       24.2469902124       23.4449272465
N                 2.3591115725       26.8967367103       18.4525221689
C                 1.5359084544       27.8605817804       17.7317227175
C                 0.2243321910       28.2078737509       18.4496825274
O                -0.3452474078       29.2880960865       18.2154666192
C                 1.2249936620       27.1941718116       16.3829482404
C                 2.4343281245       26.3005652600       16.1696959577
C                 2.7061905403       25.7756466044       17.6010093020
H                 2.0990422863       28.7902680010       17.5893286315
H                 0.3279508969       26.5805886525       16.4760248434
H                 1.0604524632       27.9251232645       15.5942437008
H                 2.2371783726       25.4817294179       15.4834801324
H                 3.2860578945       26.8799773331       15.8190133743
H                 2.0601186651       24.9211008877       17.8205491871
H                 3.7581578228       25.5159312035       17.7300168018
N                -0.2888565531       27.2659948028       19.2387398780
C                -1.5294886668       27.5696530701       19.9926127882
C                -1.3701653863       28.7869214611       20.9422130403
O                -2.3422663689       29.4576753931       21.2594569767
C                -1.9107928784       26.3404736078       20.8223188855
C                -3.1531125685       26.5496608298       21.6910891759
C                -4.3812836977       26.4233475103       20.8074149397
C                -3.2010820747       25.5468423139       22.8732430001
H                 0.2121866511       26.4159477924       19.4761121974
H                -2.3141931069       27.8224231057       19.2747782027
H                -2.0772523129       25.5014072258       20.1460062980
H                -1.0579272735       26.0959108432       21.4603738048
H                -3.1424567167       27.5474541149       22.1332284932
H                -5.2749476509       26.5904720212       21.4011748919
H                -4.3558260527       27.1365727929       19.9912306020
H                -4.4400081009       25.4223192321       20.3845392369
H                -4.0987777840       25.7155504009       23.4595522919
H                -3.2120379722       24.5236884937       22.5053996487
H                -2.3389559311       25.6817602081       23.5203327549
N                -0.1430335491       29.0395631667       21.3978105424
C                 0.1573293046       30.1799533163       22.2600951238
C                 0.6622920122       31.4069266288       21.4985755353
O                 1.0355813005       32.4100477034       22.1144098896
C                 1.1990001347       29.7400461053       23.2987783942
H                 0.6756984392       28.5842353908       21.0003080884
H                -0.7790967048       30.4660340981       22.7521822453
H                 1.4691470771       30.5916536855       23.9151962055
H                 0.7696733393       28.9559427678       23.9128441344
H                 2.0831310748       29.3753729277       22.7821051100
N                 0.7605875202       31.2970332003       20.1725501873
C                 1.3226761530       32.3645991910       19.3598580753
C                 0.2503119150       33.3814691446       18.9443147622
O                -0.9554017042       33.1581759946       18.9843005855
C                 2.0386748375       31.7846578373       18.1263315228
O                 1.0686835278       31.3699017733       17.1929626446
H                 0.2760453765       30.5542433246       19.6820251223
H                 2.0408712189       32.8922958461       19.9963675085
H                 2.6175051072       32.5681324652       17.6361213086
H                 2.6988306670       30.9641810227       18.4315100323
H                 0.5257778222       30.6399424994       17.5554155104
N                 0.7622925795       34.5824130407       18.6297641989
C                -0.0840967010       35.6899611298       18.2484628478
C                -0.1821660294       35.8134210159       16.7253238329
O                 0.8325886384       35.7406171010       15.9848547122
C                 0.5579245855       36.9741039564       18.7829880035
H                 1.7640065156       34.7416350630       18.6867378445
H                -1.0654351196       35.5287996880       18.6931736530
H                -0.0654455347       37.8333741391       18.5526408723
H                 0.6711697602       36.8971228048       19.8589832542
H                 1.5290659320       37.1174989706       18.3177365021
N                -1.3955070345       35.9718842240       16.1939114479
C                -1.5483965357       36.3359005190       14.7892246075
C                -0.6139981993       37.4914252337       14.4513544875
O                -0.4444816971       38.3876877781       15.2913355478
C                -3.0037092914       36.7901142469       14.6738561372
C                -3.6666237254       35.8388045800       15.6932987763
C                -2.6945598487       35.8799774713       16.8800879603
H                -1.3477067954       35.4756686609       14.1409428132
H                -3.1092048103       37.8263558434       14.9899115379
H                -3.3813158861       36.6710780682       13.6640507381
H                -4.6639850193       36.1637697640       15.9824507009
H                -3.7102998354       34.8362252937       15.2727380955
H                -2.8692342067       36.7621850081       17.4966540645
H                -2.7342787051       34.9790946563       17.4893136959
N                -0.0310978022       37.4819571890       13.2443595250
C                 0.9904442729       38.5145519554       12.9597478524
C                 2.4097981136       37.9692378037       13.0243386432
O                 3.3485703535       38.5013359211       12.4168894057
H                -0.2832245186       36.8306293233       12.4979280356
H                 0.8284258169       38.9433347721       11.9697239384
H                 0.8796112519       39.3062799734       13.7058829291
N                 2.5335552366       36.8562129137       13.7243988679
C                 3.8517343975       36.1450637591       13.7998061876
C                 3.8115045704       34.9866365541       12.7679962316
O                 2.7601417129       34.6273224819       12.2368636691
C                 4.1139894014       35.6196855057       15.2007132623
O                 3.1869177863       34.5477643725       15.4765301134
C                 4.1256673722       36.6927666828       16.2684032350
H                 1.7529531431       36.4356579852       14.2099688181
H                 4.6147111444       36.8680514016       13.5110445734
H                 5.0947494744       35.1294738628       15.1744353099
H                 2.3458407624       34.9565028735       15.7544980477
H                 4.1072591074       36.2185595620       17.2449671967
H                 5.0313261401       37.2828401971       16.1848706416
H                 3.2584142182       37.3446815327       16.1837763925
N                 4.9826584872       34.4093593489       12.4668804303
C                 5.0052753373       33.2872117890       11.5205456254
C                 4.1111069104       32.1621055030       12.0271921728
O                 3.2878803454       31.6197286141       11.2856068997
C                 6.4601691788       32.8051965066       11.2567867934
C                 7.1445214705       33.9216492491       10.4703513072
C                 6.4224310944       31.4926367237       10.4484039258
C                 8.6823650604       33.7900182670       10.4036052013
H                 5.8465917018       34.7322067848       12.8978668661
H                 4.5610736681       33.6261167625       10.5761011345
H                 6.9484786456       32.6306197866       12.2157002795
H                 6.7363523299       33.9182256750        9.4577527740
H                 6.9065857038       34.8884663611       10.9148650222
H                 7.4332613259       31.1513517665       10.2507188735
H                 5.9009611299       30.7130508176       10.9951707385
H                 5.9166004833       31.6492107255        9.5006036097
H                 9.0690490413       34.4454121224        9.6282751152
H                 9.1039831205       34.1036250740       11.3488526086
H                 8.9780174535       32.7679682969       10.1964702868
N                 4.3013016442       31.7320190563       13.2780859999
C                 3.4848146177       30.5861152450       13.7059565859
C                 2.0193538117       30.9529383888       13.9120077638
O                 1.1417850670       30.1076557628       13.7113537539
C                 4.0567819642       29.9817275224       14.9934043486
C                 5.3630654513       29.2657474643       14.6580224623
C                 6.1459612371       28.9566476809       15.9259852009
N                 7.4391764177       28.3732922721       15.5630482332
C                 8.5238681991       28.6162906697       16.2746951907
N                 8.4761248363       29.5174208135       17.2576414985
N                 9.6097237061       27.8683599494       16.0866827379
H                 5.0303508815       32.0812071672       13.9013963474
H                 3.4991940058       29.8402789271       12.9019391901
H                 4.2347873287       30.7858787727       15.7057699708
H                 3.3224489441       29.2981374577       15.4151128524
H                 5.1585386689       28.3563677499       14.0918032314
H                 5.9748725138       29.9200327921       14.0369356950
H                 6.2647086832       29.8974699309       16.4541023958
H                 5.5967434290       28.2714970178       16.5777451133
H                 7.4407319871       27.7383858090       14.7734918787
H                 7.7293276596       30.1693029209       17.4173575855
H                 9.3316587067       29.6301994015       17.8159042615
H                 9.6681836567       27.2263206077       15.3033196026
H                10.4753738812       28.0888736849       16.5657888679
N                 1.7827072351       32.1986489311       14.2937306091
C                 0.4294403891       32.6578065511       14.5258004717
C                -0.3639800723       32.8673701627       13.2272142054
O                -1.5789336152       33.0008863999       13.1886655009
H                 2.5363592948       32.8448761905       14.4915886981
H                -0.1021233244       31.9260069239       15.1384471669
H                 0.4658148101       33.6030015678       15.0662436386
N                 0.3763470564       32.9653698690       12.1182001044
C                -0.2418510766       33.0613926356       10.8115931856
C                -0.3157006364       31.7477383976       10.0486070207
O                -1.2003016929       31.5857483780        9.1913296698
C                 0.5517825375       34.0482849336        9.9515483908
C                 0.3781395607       35.4969310302       10.3951551762
O                -0.5841304024       35.8091366072       11.1300077778
O                 1.2057964479       36.2939735791        9.9203544625
H                 1.3766779794       33.1193197634       12.1647114857
H                -1.2603218724       33.4430296654       10.9528045424
H                 1.6151219987       33.8050488622        9.9820255665
H                 0.2246584082       33.9866075269        8.9103367244
N                -0.1752615570       25.2994015402       13.4627746255
C                -1.1598359573       24.8450453301       14.4831370768
C                -0.5361852647       23.9871486178       15.5613005825
O                -0.7867770673       24.1978822355       16.7494517069
C                -2.3704761837       24.1222326717       13.8660351270
C                -3.1354248554       25.1281432182       12.9772470078
C                -3.2327224844       23.5302498426       14.9923588125
C                -4.2060988799       24.4421252537       12.1042444664
H                 0.2396839085       24.5902824862       12.8659488039
H                -1.5170373288       25.7603218721       14.9668776142
H                -2.0072203924       23.3039427262       13.2342593725
H                -3.6128426135       25.8816641668       13.6046014780
H                -2.4335722742       25.6296524380       12.3115007379
H                -4.1898232064       23.2034077714       14.5988428746
H                -2.7382139132       22.6611945179       15.4228721319
H                -3.3839535930       24.2562497441       15.7852043443
H                -4.7015875184       25.1896755346       11.4908703227
H                -3.7375236506       23.7096039831       11.4532122224
H                -4.9536199381       23.9375134066       12.7064176119
O                -4.3870801594       30.1934121140       19.6034154606
H                -3.7277371363       29.8336916900       20.2206869543
H                -4.8536976145       29.4443424044       19.1907330361
O                -2.1683727600       39.9153430976       16.8730456539
H                -1.5488044619       39.3598679573       16.3744418575
H                -2.0888327418       40.7987812706       16.4978201676
O                 2.4932917645       34.8552823483       22.1758790111
H                 2.0261383962       35.4647911652       22.7518301325
H                 1.9893420728       34.0257747588       22.1981794158
O                -2.9411103009       31.5790090167       17.7433435144
H                -2.2828989798       32.1111148702       18.2084540169
H                -3.5029141202       31.1714873258       18.4296665129
O                 0.1811858842       22.7422319803       19.3305939362
H                 0.4518768758       23.5339793462       19.8346056294
H                -0.3420484993       23.1017583325       18.6033609977
O                 5.5813452394       36.8445324444       19.2830670815
H                 6.1909710742       36.8627494979       18.5233507204
H                 5.0566222158       37.6604763096       19.2136590849
O                 6.1097898705       38.1375902858       11.4669527862
H                 6.3915188917       37.6237294628       12.2305348222
H                 5.3520229279       38.6663547085       11.7414095842
O                 3.6053405452       34.8382099454       19.6832113683
H                 4.2998858832       35.5136839423       19.5980143661
H                 3.2701522261       34.9197700530       20.5906230324
O                -3.6476353209       34.8777456205       11.1770098056
H                -2.7543656368       35.1993463737       11.3319926283
H                -3.5949034047       34.3771198419       10.3434529623
O                -3.4987515563       33.3093100337       22.4844188260
H                -2.7833180870       32.6784805572       22.3860111993
H                -3.2702199193       34.0583430536       21.9199773962
O                -2.7207138879       36.2725042017       20.9046199956
H                -2.6237774785       36.7825652734       21.7114767889
H                -3.0105095612       36.9004921301       20.2277520377
O                -3.4983196628       38.4758982413       19.1607880236
H                -3.4618634630       39.1740850515       19.8208088818
H                -3.1456853385       38.8788893609       18.3516056126
O                -6.8524425272       34.9346138319       22.4107145057
H                -7.4127612217       34.4132208363       22.9974440984
H                -5.9509981888       34.8409151105       22.7365627334
O                -5.8867481516       31.1930680722       21.6237354089
H                -5.4228484981       30.9483461034       20.8028647757
H                -5.3410016692       31.8740897423       22.0287647490
O                -8.2019867810       25.9121019904       24.3282212455
H                -8.2710719242       25.7775229846       23.3645209859
H                -7.6220604950       26.6704040365       24.4334995998
O                -3.2615545308       33.3304035025        8.8686661720
H                -4.0788058607       32.8082304430        8.7762306951
H                -2.5320564957       32.6872150325        8.9802882865
O                 1.8944836088       39.4409531720       16.8730456539
H                 2.0657550424       40.2552526277       16.3744418575
H                 1.0896336992       39.0681177619       16.4978201676
O                 0.2738891512       43.1966849621       16.8730456539
H                -0.5169505805       42.9378606467       16.3744418575
H                 0.9991990426       42.6860821992       16.4978201676
O                -6.2663812052       28.6224221796       22.7282237120
H                -6.5693959648       28.0753630458       21.9887076194
H                -6.1589411103       29.5187983917       22.3650943501
O                -5.0136201437       25.7990998473       16.9888253575
H                -5.7030842753       25.1289320370       16.8844569671
H                -4.6690242279       25.9446280385       16.1031912984
O                -6.2603698843       38.0206376290       19.2830670815
H                -6.5494063706       37.4835776425       18.5233507204
H                -5.2913802572       38.0670891648       19.2136590849
O                -2.0189819463       38.1552849848       10.4591168490
H                -1.6948621080       37.2921481253       10.7555787736
H                -1.2406934705       38.5699671396       10.0689887729
O                -5.4047712607       36.9164622333       11.4669527862
H                -5.9906522980       36.9294081554       12.2305348222
H                -4.5679643667       37.3083254444       11.7414095842
O                -7.0098937896       40.7350691417       19.6832113683
H                -6.7721888176       39.7958382365       19.5980143661
H                -6.7716665049       40.9845706873       20.5906230324
O                -7.7273205571       37.2903618191       21.4990442233
H                -7.3813307329       36.4673712661       21.8704656845
H                -7.1339045708       37.5484271478       20.7736627651
O                 3.8060528731       39.0089077966       19.1607880236
H                 3.1831772590       38.6913863867       19.8208088818
H                 3.2807351638       39.1128025199       18.3516056126
N                -7.0433213022       34.1115198977        6.1098422082
C                -6.4279014441       34.0123496669        7.4351737485
C                -6.5489349391       32.6018760593        8.0053346792
O                -5.6199068554       32.0653242051        8.6034786332
C                -7.0705262400       34.9676213799        8.4192337434
C                -6.8562710930       36.4387470073        8.0851828235
C                -5.4154016319       36.9005924174        8.1087983432
N                -5.3730960211       38.2371518740        7.5889799379
C                -5.3942365595       39.3236831689        8.3517352986
N                -5.4622325188       39.2083473222        9.6838032653
N                -5.3736540147       40.5084629228        7.7473862001
H                -7.8164663245       34.7500626897        5.9766121376
H                -5.3575756982       34.2137835301        7.3267563321
H                -8.1403642277       34.7562228681        8.4505697943
H                -6.6434173845       34.7702319916        9.4038722420
H                -7.2701437374       36.6492674026        7.0982536507
H                -7.4109839876       37.0257178283        8.8168170347
H                -4.9920550886       36.8303193597        9.1091716306
H                -4.7978372587       36.2830824133        7.4517705173
H                -5.3727004728       38.3231171558        6.5768317704
H                -5.3718888038       38.3168617580       10.1590986853
H                -5.2338206399       40.0346608004       10.2150948053
H                -5.1981382478       40.5739394788        6.7481084245
H                -5.1811070038       41.3120638511        8.3341229339
N                -3.5345467847       29.4315307724        7.9298464119
C                -3.1746855420       28.9175995049        9.2666439454
C                -3.0485387776       27.3829721650        9.2459019565
O                -2.3699609529       26.7959471725       10.0886128588
C                -4.2137929762       29.3536834634       10.2957948361
C                -3.7648277900       29.0594120082       11.7640780109
C                -2.7958773872       30.1240943915       12.2914144538
N                -2.2965339639       29.7330062776       13.5990463358
C                -2.5413394614       30.2651133244       14.7970644778
N                -3.1937484557       31.4083411474       14.9443551230
N                -2.1297228967       29.6274106914       15.8981742920
H                -4.4021222382       29.9336020762        7.8323407603
H                -2.1887981644       29.3198750141        9.5179771309
H                -4.3920510853       30.4231400777       10.1782144134
H                -5.1442362978       28.8225076875       10.0898839940
H                -4.6492205268       29.0279555380       12.3958838007
H                -3.2833378553       28.0828202107       11.7882502045
H                -1.9437045304       30.2176091664       11.6137464088
H                -3.2879225857       31.0946952773       12.3487922993
H                -1.7694748576       28.8619771238       13.5936197910
H                -3.2273887631       32.0682970096       14.1822301656
H                -3.2648207893       31.7631690891       15.8948568688
H                -1.6035851652       28.7743301699       15.8249873704
H                -2.2152822342       30.1100876337       16.7920468152
N                -8.7097659629       29.1745980330       18.8963379540
C                -7.7395445578       29.7995712005       18.0135400578
C                -8.4582924041       30.6527015996       16.9652425943
O                -7.9715389642       31.7193946292       16.5693419854
C                -6.8014687604       28.7479757412       17.4016817251
O                -6.0085215569       28.2145780788       18.4623922736
C                -5.8838773910       29.3548796981       16.3504074244
H                -8.7786983611       28.1652961892       18.8987732863
H                -7.1323888807       30.4917681693       18.6143961777
H                -7.4140900267       27.9442387022       16.9668749480
H                -6.5306695482       27.7201333862       19.1235552060
H                -5.1629579210       28.6065214310       16.0393578851
H                -6.4699100723       29.6872258989       15.5011884620
H                -5.3561112393       30.2041437697       16.7735258067
N                -9.0840237671       33.8973118838       18.5457319979
C                -7.8187107387       34.6376022135       18.5179898415
C                -7.4866592425       35.2583369670       17.1520656930
O                -7.0275177537       36.3892083764       17.1235351941
C                -6.6698188382       33.7449507342       18.9859160946
O                -6.9660360150       33.3155360450       20.2988654903
C                -5.3068302644       34.4124330808       18.8687085138
H                -9.0487969868       32.9041127962       18.7459565645
H                -7.9140890275       35.4856092752       19.2126869988
H                -6.6773293513       32.8379624929       18.3667893382
H                -6.8619290996       34.0555054651       20.9287784036
H                -4.5461358834       33.7695324479       19.3006979274
H                -5.0620772437       34.5877666785       17.8274769607
H                -5.2941777837       35.3604063503       19.3997753888
N                -7.7264369257       34.4926794496       16.0762564828
C                -7.5285631844       35.0545819574       14.7053320488
C                -8.4920442186       36.2203648306       14.4523088887
O                -8.1397599258       37.2466889402       13.8446718339
C                -7.6707308023       33.9359501373       13.6841201727
C                -6.4316790863       32.9993880589       13.7409032322
C                -7.8995465048       34.4310862421       12.2596421610
C                -6.7260356846       31.7317256926       12.9371438532
H                -8.0286421336       33.5314353598       16.1875325716
H                -6.5214728675       35.4864485606       14.6560948423
H                -8.5492384431       33.3525159419       13.9814468338
H                -5.5711343898       33.5220197595       13.3253580045
H                -6.2387614272       32.7347110577       14.7795927895
H                -8.1957426008       33.6079324747       11.6180233268
H                -8.6854624242       35.1776998012       12.2284934726
H                -6.9912702198       34.8755297869       11.8589192924
H                -5.9423215979       30.9966632075       13.1015317677
H                -7.6766443591       31.3015736004       13.2392211407
H                -6.7617245063       31.9391784011       11.8722741702
N                 4.9231863093       42.0820039608       16.1939114479
C                 4.6843837011       41.7675896213       14.7892246075
C                 3.2164707752       41.9990399605       14.4513544875
O                 2.3555263922       41.6977142856       15.2913355478
C                 5.0186794518       40.2801449404       14.6738561372
C                 6.1739950072       40.1816990335       15.6932987763
C                 5.6523062990       41.0029445992       16.8800879603
H                 5.3290214732       42.3715079637       14.1409428132
H                 4.1740156642       39.6706623429       14.9899115379
H                 5.3105711039       40.0126461262       13.6640507381
H                 6.3912475494       39.1554762243       15.9824507009
H                 7.0640921935       40.6451640559       15.2727380955
H                 4.9756293397       40.4105683994       17.4966540645
H                 6.4523531309       41.4189884680       17.4893136959
N                -5.8098964244       43.3251193565       18.6297641989
C                -4.4275370030       43.5043399304       18.2484628478
C                -4.2715829411       43.5275405171       16.7253238329
O                -4.8420103149       42.6851391536       15.9848547122
C                -3.6364473363       42.3062617732       18.7829880035
H                -6.1728630762       42.3779986294       18.6867378445
H                -4.0764376965       44.4347846515       18.6931736530
H                -2.5806124693       42.4164810419       18.5526408723
H                -3.7597375566       42.2466791509       19.8589832542
H                -3.9978342846       41.3935311894       18.3177365021
N                -3.5276792749       44.4990930469       16.1939114479
C                -3.1359871654       44.4494910914       14.7892246075
C                -2.6024725759       43.0625160375       14.4513544875
O                -1.9110446951       42.4675791680       15.2913355478
C                -2.0149701604       45.4827220443       14.6738561372
C                -2.5073712818       46.5324776182       15.6932987763
C                -2.9577464503       45.6700591612       16.8800879603
H                -3.9813146778       44.7058046071       14.1409428132
H                -1.0648108539       45.0559630454       14.9899115379
H                -1.9292552178       45.8692570373       13.6640507381
H                -1.7272625301       47.2337352434       15.9824507009
H                -3.3537923581       47.0715918821       15.2727380955
H                -2.1063951330       45.3802278242       17.4966540645
H                -3.7180744258       46.1548981074       17.4893136959
N                -2.9021223417       42.5624435081       13.2443595250
C                -2.5186400798       41.1614647368       12.9597478524
C                -3.7005729085       40.2049253296       13.0243386432
O                -3.7091485415       39.1258756628       12.4168894057
H                -3.3401254614       43.1064555823       12.4979280356
H                -2.0662940398       41.0873854273       11.9697239384
H                -1.7775669927       40.8615849395       13.7058829291
N                -4.7263592998       40.6542609622       13.7243988679
C                -6.0013221140       39.8682588994       13.7998061876
C                -6.9844345884       40.4823125542       12.7679962316
O                -6.7699282742       41.5724765335       12.2368636691
C                -6.5874405300       39.9038285305       15.2007132623
O                -7.0522156547       41.2426566669       15.4765301134
C                -5.6639639557       39.3571745225       16.2684032350
H                -4.7002695048       41.5405596696       14.2099688181
H                -5.7566848225       38.8460078329       13.5110445734
H                -7.5023563025       39.2995712137       15.1744353099
H                -6.2776992174       41.7666814856       15.7544980477
H                -6.0654352366       39.6102201079       17.2449671967
H                -5.6057746862       38.2778142652       16.1848706416
H                -4.6657625576       39.7822803605       16.1837763925
H                 8.8205550283       38.5237028380        5.5108601865
H                11.2878177879       38.8220862714        7.8963111831
H                10.5319660982       35.8216310859       19.1784892325
H                 6.5420156056       29.2259910081       20.2535656440
H                 5.5754446253       26.2317923658       20.7922462778
H                 0.3450233531       31.0214874980       10.2383527464
H                -0.5708620241       25.8815535905       12.9018831379
H                 0.0839408021       23.2432846926       15.3120815583
H                -8.5252854349       29.3945980198       19.7493132999
H                -9.3345180380       30.3504610192       16.5899037204
H                -9.6215388758       34.2447248801       19.1784892325
H                -9.4356250252       36.1692120990       14.7794765208
H                 5.5330394233       42.7410746371       16.2547803490
H                 2.9624995483       42.3874129513       13.5655412815
H                -5.9434579385       43.6744610722       19.4483738052
H                -7.8185911627       39.9906144758       12.5181646697
H                -6.4257705606       34.3758144669        5.5108601865
H                -7.4009943070       32.0899105225        7.8963111831
H                -2.9008721194       30.0050818714        7.6478968502
H                -3.5208547778       26.8519242029        8.5424066417
