 282 
 
N                45.5650000000       38.8200000000       91.2380000000
C                46.2030000000       39.9870000000       90.6390000000
C                46.7760000000       39.5940000000       89.2850000000
O                46.9820000000       38.4060000000       89.0110000000
C                47.3490000000       40.4700000000       91.5090000000
C                48.5240000000       39.5230000000       91.4320000000
C                49.6670000000       39.9250000000       92.3020000000
N                50.3030000000       38.7280000000       92.7770000000
C                51.2920000000       38.7030000000       93.6360000000
N                51.8340000000       39.8180000000       94.0560000000
N                51.7860000000       37.5420000000       94.0310000000
H                46.1950000000       38.0270000000       91.3570000000
H                45.4720000000       40.7870000000       90.5160000000
H                47.6740000000       41.4530000000       91.1670000000
H                47.0180000000       40.5270000000       92.5460000000
H                48.1990000000       38.5310000000       91.7460000000
H                48.8830000000       39.4900000000       90.4040000000
H                50.3860000000       40.5120000000       91.7310000000
H                49.3070000000       40.5030000000       93.1530000000
H                49.9610000000       37.8350000000       92.4210000000
H                51.4870000000       40.7140000000       93.7140000000
H                52.6040000000       39.7910000000       94.7250000000
H                51.3970000000       36.6720000000       93.6670000000
H                52.5560000000       37.5160000000       94.7000000000
N                47.8490000000       35.7170000000       88.9370000000
C                48.2650000000       34.9740000000       90.0800000000
C                47.1310000000       34.9250000000       91.0460000000
O                46.7090000000       35.9630000000       91.5890000000
C                49.4200000000       35.6620000000       90.7300000000
C                49.8610000000       35.0260000000       92.0230000000
C                50.8110000000       34.0210000000       92.0080000000
C                49.3350000000       35.4500000000       93.2480000000
C                51.2460000000       33.4560000000       93.1750000000
C                49.7810000000       34.9060000000       94.4210000000
C                50.7450000000       33.9060000000       94.3860000000
H                47.5500000000       36.6710000000       89.1400000000
H                48.5400000000       33.9600000000       89.7890000000
H                50.2680000000       35.6440000000       90.0450000000
H                49.1370000000       36.6920000000       90.9460000000
H                51.2130000000       33.6790000000       91.0660000000
H                48.5710000000       36.2130000000       93.2680000000
H                51.9780000000       32.6620000000       93.1530000000
H                49.3870000000       35.2510000000       95.3660000000
H                51.1060000000       33.4770000000       95.3090000000
N                45.3010000000       34.2350000000       94.4250000000
C                45.6050000000       34.2800000000       95.8340000000
C                45.0970000000       33.0710000000       96.5740000000
O                44.1370000000       32.4140000000       96.1510000000
C                44.9930000000       35.4880000000       96.4510000000
C                45.6230000000       36.7610000000       96.0310000000
C                46.8160000000       37.1840000000       96.6100000000
C                44.9980000000       37.5780000000       95.0900000000
C                47.3830000000       38.3900000000       96.2370000000
C                45.5600000000       38.7840000000       94.7070000000
C                46.7510000000       39.1990000000       95.2890000000
H                44.5660000000       34.8790000000       94.1330000000
H                46.6900000000       34.3100000000       95.9370000000
H                43.9410000000       35.5300000000       96.1700000000
H                45.0860000000       35.4130000000       97.5340000000
H                47.3010000000       36.5690000000       97.3530000000
H                44.0610000000       37.2650000000       94.6530000000
H                48.3160000000       38.7070000000       96.6800000000
H                45.0760000000       39.3970000000       93.9610000000
H                47.1880000000       40.1460000000       95.0090000000
N                47.7690000000       30.3120000000       95.1820000000
C                48.9940000000       30.6880000000       94.4980000000
C                49.1810000000       29.9340000000       93.1860000000
O                50.2920000000       29.5440000000       92.8460000000
C                50.2170000000       30.4600000000       95.3820000000
C                50.2080000000       31.2250000000       96.6600000000
N                50.8530000000       30.7660000000       97.7880000000
C                49.6390000000       32.4040000000       96.9960000000
C                50.6790000000       31.6320000000       98.7690000000
N                49.9530000000       32.6400000000       98.3120000000
H                47.1760000000       31.1050000000       95.4260000000
H                48.9060000000       31.7500000000       94.2680000000
H                50.2710000000       29.4010000000       95.6330000000
H                51.1070000000       30.7570000000       94.8270000000
H                49.0490000000       33.0400000000       96.3520000000
H                51.0640000000       31.5350000000       99.7740000000
H                49.6720000000       33.4600000000       98.8500000000
N                44.2410000000       37.5800000000      101.6910000000
C                45.4340000000       38.2280000000      101.1390000000
C                45.1550000000       39.5720000000      100.4110000000
O                45.7620000000       39.8600000000       99.4340000000
C                46.1930000000       37.2240000000      100.2460000000
C                46.9670000000       36.1260000000      100.9890000000
C                47.4190000000       34.9490000000      100.0940000000
O                47.0860000000       34.9480000000       98.8950000000
O                48.0940000000       33.9860000000      100.5630000000
H                44.0650000000       36.6430000000      101.3280000000
H                46.0770000000       38.5170000000      101.9710000000
H                45.4700000000       36.7280000000       99.5980000000
H                46.9140000000       37.7780000000       99.6450000000
H                47.8610000000       36.5670000000      101.4300000000
H                46.3280000000       35.7180000000      101.7720000000
N                47.8750000000       41.7900000000      102.7890000000
C                49.0800000000       41.4980000000      101.9500000000
C                48.8440000000       41.0990000000      100.4730000000
O                48.6070000000       39.9730000000      100.1550000000
C                49.9310000000       40.3980000000      102.6100000000
C                51.1760000000       40.0590000000      101.8040000000
O                51.4390000000       40.6540000000      100.7460000000
N                51.9410000000       39.0980000000      102.2910000000
H                47.8650000000       41.2680000000      103.6650000000
H                49.5970000000       42.4570000000      101.9000000000
H                50.2490000000       40.7370000000      103.5960000000
H                49.3320000000       39.4920000000      102.7030000000
H                52.7910000000       38.8230000000      101.7980000000
H                51.6820000000       38.6310000000      103.1600000000
N                49.0030000000       42.0110000000       99.5690000000
C                48.5480000000       41.7110000000       98.2580000000
C                49.6200000000       41.5170000000       97.2320000000
O                49.2860000000       41.0640000000       96.1370000000
C                47.6090000000       42.7830000000       97.8080000000
C                48.1630000000       44.1270000000       98.0610000000
O                48.5240000000       44.4240000000       99.1960000000
N                48.3200000000       44.9230000000       97.0130000000
H                49.4260000000       42.9290000000       99.7090000000
H                48.0560000000       40.7400000000       98.3210000000
H                47.4310000000       42.6810000000       96.7370000000
H                46.6690000000       42.6910000000       98.3520000000
H                48.6990000000       45.8620000000       97.1380000000
H                48.0610000000       44.5970000000       96.0820000000
N                50.8820000000       41.9410000000       97.5110000000
C                51.8580000000       41.3780000000       96.6330000000
C                52.5890000000       40.3440000000       97.4340000000
O                53.7330000000       40.5470000000       97.8260000000
C                52.7060000000       42.5860000000       96.2060000000
C                52.6340000000       43.5220000000       97.3520000000
C                51.4890000000       43.0710000000       98.2460000000
H                51.4720000000       40.9640000000       95.7010000000
H                53.7330000000       42.2730000000       96.0210000000
H                52.2860000000       43.0360000000       95.3070000000
H                53.5760000000       43.4920000000       97.9000000000
H                52.4500000000       44.5300000000       96.9810000000
H                51.8640000000       42.7420000000       99.2150000000
H                50.7660000000       43.8750000000       98.3800000000
N                51.8660000000       39.2590000000       97.7170000000
C                52.4460000000       38.0760000000       98.3370000000
C                53.2390000000       37.3930000000       97.2760000000
O                52.9160000000       37.4720000000       96.1000000000
C                51.3890000000       37.0350000000       98.7740000000
O                50.3540000000       37.6810000000       99.5060000000
C                52.0050000000       35.9060000000       99.6230000000
H                50.8680000000       39.1710000000       97.5260000000
H                53.0110000000       38.3820000000       99.2180000000
H                50.9700000000       36.5700000000       97.8820000000
H                49.6810000000       37.0250000000       99.7850000000
H                51.2330000000       35.1930000000       99.9120000000
H                52.7710000000       35.3840000000       99.0500000000
H                52.4580000000       36.3210000000      100.5230000000
N                54.2430000000       36.6700000000       97.7140000000
C                54.9650000000       35.7790000000       96.8470000000
C                54.7120000000       34.3590000000       97.3580000000
O                54.5450000000       34.1310000000       98.6000000000
C                56.4760000000       36.1530000000       96.8240000000
C                56.7190000000       37.3250000000       95.8740000000
C                57.0200000000       36.4940000000       98.2220000000
H                54.5810000000       36.6820000000       98.6760000000
H                54.6050000000       35.8340000000       95.8200000000
H                57.0210000000       35.2780000000       96.4700000000
H                57.7820000000       37.5680000000       95.8750000000
H                56.4040000000       37.0400000000       94.8700000000
H                56.1410000000       38.1840000000       96.2150000000
H                58.0770000000       36.7460000000       98.1400000000
H                56.4660000000       37.3430000000       98.6210000000
H                56.8940000000       35.6290000000       98.8730000000
N                54.6190000000       33.4160000000       96.4190000000
C                55.0010000000       32.0200000000       96.7370000000
C                55.2000000000       31.3070000000       95.4710000000
O                54.5670000000       31.6950000000       94.5110000000
C                53.9590000000       31.2650000000       97.5510000000
C                54.6050000000       30.3400000000       98.5570000000
C                53.6740000000       29.2550000000       99.0100000000
C                53.3530000000       28.3040000000       97.8680000000
N                52.7150000000       27.0930000000       98.4250000000
O                55.9830000000       30.3590000000       95.4150000000
H                54.2970000000       33.5700000000       95.4640000000
H                55.9010000000       32.0450000000       97.3510000000
H                53.3370000000       31.9790000000       98.0910000000
H                53.3430000000       30.6660000000       96.8800000000
H                55.4770000000       29.8700000000       98.1030000000
H                54.9050000000       30.9160000000       99.4320000000
H                54.1430000000       28.6850000000       99.8130000000
H                52.7430000000       29.6990000000       99.3620000000
H                52.6650000000       28.7790000000       97.1690000000
H                54.2700000000       28.0180000000       97.3520000000
H                52.4870000000       26.4270000000       97.6590000000
H                53.3590000000       26.6280000000       99.0960000000
H                51.8380000000       27.3490000000       98.9220000000
N                56.4372490850       44.2254641609       92.2260000000
C                56.1269454224       45.2360024516       93.2580000000
C                56.5461036046       44.6880057196       94.6160000000
O                56.3897432396       43.5011816231       94.8320000000
C                54.6478259010       45.6280922901       93.2780000000
C                54.4174222755       47.0890215045       92.9040000000
S                52.7079688536       47.7041613245       93.0370000000
C                51.7716875119       46.6604744705       91.9110000000
H                55.6229132976       43.7429932028       91.8450000000
H                56.6698377273       46.1523195067       93.0260000000
H                54.1069938872       45.0073437639       92.5630000000
H                54.2530612198       45.4703398053       94.2820000000
H                55.0306799152       47.7072148945       93.5600000000
H                54.7253953055       47.2264464397       91.8670000000
H                50.7250666093       46.9656738909       91.9310000000
H                52.1728348790       46.7752820916       90.9040000000
H                51.8617046779       45.6223887756       92.2310000000
N                57.1014670527       45.5359234283       95.5150000000
C                57.6627014958       45.0560099988       96.7980000000
C                56.6435203022       45.1167363892       97.9250000000
O                55.5834334111       45.7126120336       97.7370000000
C                58.7935539437       46.0347038943       97.0520000000
C                58.2558997201       47.3254594621       96.4980000000
C                57.2779043693       46.9975218250       95.3850000000
H                58.0461628350       44.0401845210       96.7030000000
H                58.9949673732       46.1135621876       98.1200000000
H                59.6940197470       45.7203564162       96.5250000000
H                57.7496556580       47.8706190256       97.2940000000
H                59.0839964151       47.9177650114       96.1080000000
H                56.3315969332       47.5184692661       95.5330000000
H                57.6960543138       47.2537787740       94.4120000000
N                56.8772817153       44.4656230337       99.0580000000
C                55.7779735887       44.3035655051      100.0160000000
C                56.0163588519       44.7744608929      101.4500000000
O                56.6786381218       44.0895622371      102.2300000000
C                55.3078337687       42.8452594503      100.0300000000
C                53.7974526490       42.6792026123      100.0600000000
C                53.2165072797       42.8829757162      101.4460000000
O                52.0673319315       43.3605456262      101.5470000000
O                53.9111865866       42.5661955707      102.4350000000
H                57.7712545603       44.0580294217       99.3310000000
H                55.0287161341       45.0098135258       99.6590000000
H                55.6773701726       42.3513152771       99.1310000000
H                55.7117528585       42.3568678360      100.9170000000
H                53.3451393676       43.4137730278       99.3930000000
H                53.5434038637       41.6711772085       99.7320000000
N                55.4274174413       45.9123844469      101.8150000000
C                54.7635811483       46.8325862597      100.8510000000
C                54.8612889915       48.2738212084      101.3630000000
O                55.0200473218       48.5227987025      102.5700000000
C                53.2940775598       46.4593313825      100.6240000000
O                54.7820012989       49.2144908963      100.5730000000
H                55.3841142843       46.2433811789      102.7790000000
H                55.2651752659       46.7473727562       99.8870000000
H                52.8558790151       47.1603492392       99.9140000000
H                53.2426812964       45.4463104429      100.2260000000
H                52.7636892136       46.5126718191      101.5750000000
N                51.2306353160       24.3880632713       92.8340000000
C                52.0303087774       23.6111383360       93.7790000000
C                51.3774472162       22.2883489417       94.0390000000
O                50.1606897616       22.1848632098       94.0240000000
C                52.1872928076       24.3530426522       95.0780000000
C                52.9549075443       25.6245903768       94.9370000000
C                54.3319059780       25.6136216260       94.9560000000
C                52.3010238472       26.8300305913       94.7600000000
C                55.0473508417       26.7848084799       94.8240000000
C                53.0144687110       27.9977533437       94.6250000000
C                54.3890652209       27.9766243388       94.6640000000
H                50.3829015634       24.7897453406       93.2340000000
H                53.0194348348       23.4303549225       93.3580000000
H                51.1989539373       24.5991895137       95.4660000000
H                52.7185605717       23.7172254121       95.7860000000
H                54.8572474257       24.6775397047       95.0760000000
H                51.2218977899       26.8549294321       94.7280000000
H                56.1271108737       26.7630077153       94.8470000000
H                52.4940913649       28.9344333412       94.4880000000
H                54.9478498306       28.8964676733       94.5690000000
H                45.2478873498       39.0357560789       92.0521798828
H                46.9890502771       40.2989945397       88.6085443263
H                48.5304593359       35.7748724731       88.3519667101
H                46.6986628932       34.0504316085       91.2655785844
H                46.0373536979       34.4447545019       93.9519394536
H                45.5367666337       32.7844705975       97.4251793051
H                47.2845567056       29.7680653819       94.6533698593
H                48.3938722575       29.7544507961       92.5959220387
H                44.3263261097       37.5039035384      102.5837086779
H                44.4610272702       40.1983309149      100.7661217190
H                47.8558137048       42.6664905473      102.9924605772
H                56.8530711586       44.6216052879       91.5330611783
H                51.7216787821       25.0720725252       92.5161829850
H                51.9385283295       21.4821135985       94.2265434768
