 278 
 
N                14.3339701738       34.8028209085       79.7895072836
C                15.1201510667       33.9311627131       80.6451719933
C                16.5174687410       33.7905326509       80.0230071138
O                16.6677070154       33.3464341759       78.8911042624
C                14.4814763468       32.5324153439       80.7701499149
C                15.3803937618       31.6397114556       81.6091420137
C                13.0861768269       32.5956371449       81.3817152741
H                14.2196131810       34.5143825156       78.8210269771
H                15.1971756373       34.4149133805       81.6226445327
H                14.4126129159       32.1230660449       79.7575269696
H                14.9326537248       30.6574081204       81.7212118715
H                16.3553002812       31.5315615057       81.1445152541
H                15.5172800201       32.0737628960       82.5981833099
H                12.6414748898       31.6058544748       81.3791893473
H                13.1275239294       32.9607856853       82.4051995223
H                12.4478208967       33.2616133674       80.8046464471
N                22.3306012580       25.9224025028       78.4995527404
C                21.5145301262       27.0919063630       78.2114238517
C                20.2091927875       26.6047690859       77.5552658107
O                20.0421123643       25.4401100187       77.2358722438
C                22.3759996562       27.9530092594       77.2664987051
C                23.6028425566       27.0696627775       76.9690604654
C                23.1344741838       25.6545600314       77.3308427717
H                21.2608861987       27.5717668500       79.1581755969
H                21.8276549300       28.1545281354       76.3455721951
H                22.6413037917       28.9050707357       77.7209743938
H                23.9110549041       27.1370355853       75.9287920767
H                24.4451747713       27.3226386080       77.6122284382
H                22.4992768325       25.2365439147       76.5446610306
H                23.9517505783       24.9710538906       77.5350871658
N                19.2501245451       27.5518629622       77.4272829378
C                17.9361625545       27.2107369231       76.9291239865
C                17.8202291819       27.4139391081       75.4251682462
O                18.4806984561       28.2234210902       74.7844208765
C                16.8486288364       28.0304773770       77.6287860001
C                16.5244295839       27.5453422757       79.0461597748
C                15.8315987733       28.6734868751       79.8019799109
C                15.6255766663       26.3125123670       79.0058766459
H                19.5140956174       28.5243394995       77.4149944441
H                17.8127544918       26.1418574895       77.1349664136
H                17.1751297342       29.0726872737       77.6452882935
H                15.9383079403       27.9974585163       77.0302338360
H                17.4593388462       27.2841415647       79.5534664170
H                15.6327053552       28.3773403747       80.8284336487
H                16.4579986128       29.5600422075       79.8231726224
H                14.8944440822       28.9346760998       79.3186964403
H                15.4469120357       25.9337048431       80.0089588359
H                14.6689253343       26.5666197290       78.5562509896
H                16.0731900257       25.5097248730       78.4235703072
N                16.8594821377       26.6643293897       74.8746059598
C                16.6995370330       26.6394199152       73.4407948491
C                16.2700686838       28.0322111169       72.9774268399
O                16.6010403415       28.5178240199       71.9073267916
C                15.6005975878       25.6478389581       73.0397191804
C                15.5714474777       24.3819808466       73.9698944851
O                15.1152020566       24.5988702511       75.1170224834
O                15.9466021363       23.3078193156       73.4869592922
H                16.3745242478       25.9257606653       75.3859738540
H                17.6539861926       26.3836989392       72.9617160199
H                14.6367152248       26.1388177325       73.1691712836
H                15.7617521423       25.3284693929       72.0129907495
N                15.3306140599       28.5540326314       73.7809924831
C                14.6660824291       29.8083169814       73.5330397581
C                14.8804751972       30.7490851050       74.7281756407
O                15.1933976167       30.3253012403       75.8221517610
C                13.1491250477       29.5424254554       73.4039978129
C                12.7968520412       28.4113574179       72.4328499365
C                13.1514094629       28.7467220817       70.9807702268
C                12.4706731314       27.8313474330       69.9669802646
N                13.0348374240       26.4516979645       70.0364501212
H                15.2713909048       28.2171241560       74.7317755786
H                15.0934176562       30.2201328846       72.6145200496
H                12.7811702077       29.2731018288       74.3945925999
H                12.6629302782       30.4672688578       73.0983606600
H                13.3253446790       27.5184932877       72.7614272905
H                11.7252381461       28.2286075227       72.5110990345
H                12.8290616596       29.7644246790       70.7698740467
H                14.2346911225       28.7124223502       70.8533129844
H                11.3983908419       27.7804313127       70.1603857800
H                12.6304361185       28.2153492357       68.9594398868
H                12.5787954346       25.8313948946       69.3519766618
H                14.0445214409       26.4827147865       69.8314404257
H                12.9235082273       26.0604859605       70.9808662191
N                14.5151804583       32.0376487276       74.4998149109
C                14.8505650088       33.0734468893       75.4492579356
C                13.6586239956       33.9272415429       75.8800805366
O                13.6785312306       34.5709603263       76.9246789608
C                15.9673562689       33.9413311006       74.8258753144
O                16.9889470208       33.0333016588       74.4746730128
C                16.4490803721       35.0387003313       75.7538642487
H                14.5305146510       32.3320110266       73.5311486728
H                15.2651895865       32.5923154119       76.3438750557
H                15.5734164198       34.4091672133       73.9054108554
H                17.8402906794       33.4806107810       74.5014084803
H                17.3080768650       35.5542308834       75.3285047328
H                15.6573369241       35.7667121877       75.9008897374
H                16.7245889134       34.6284747709       76.7242275485
N                12.6437618328       33.9698248159       75.0115512584
C                11.4412075008       34.7494592406       75.2397906055
C                10.2682516846       33.7761926275       75.3793543583
O                10.1543638957       32.8574714336       74.5765117550
C                11.2175557866       35.7610744877       74.0859391176
C                11.6900221793       35.2414633682       72.7283782352
C                11.2340472005       36.1594165605       71.5885415632
C                11.6415600932       35.6082597144       70.2162767315
N                10.9937311953       36.3725458692       69.1161862014
H                12.5884595592       33.2582785823       74.2953273335
H                11.5650147008       35.2934878450       76.1786762177
H                10.1553818784       36.0098934607       74.0537126779
H                11.7514623956       36.6806885290       74.3291372532
H                12.7785272079       35.1877250818       72.7323678097
H                11.2879657188       34.2378478023       72.5842622200
H                10.1519563227       36.2771178026       71.6422651331
H                11.6672615378       37.1497878758       71.7264031406
H                12.7221238500       35.6990287568       70.1009004080
H                11.3698681818       34.5553442737       70.1358054069
H                11.3427357054       36.0894804859       68.1929342076
H                 9.9696290997       36.3134111369       69.1481483586
H                11.1896966943       37.4110936498       69.2089691422
N                 9.4204493955       34.0133782329       76.3760030996
C                 8.2822968125       33.1926270256       76.7320035083
C                 7.0640251412       34.0760771840       77.0690253635
O                 7.1992300876       35.0970978066       77.7432889734
C                 8.5321068465       32.4093973710       78.0485127133
C                 9.7175849939       31.4919903705       77.9961460749
C                11.0121250442       32.0048844363       78.0053199690
C                 9.5369968711       30.1158327110       77.9604582349
C                12.1036764148       31.1562112979       77.9613150875
C                10.6301611343       29.2687407316       77.9286999642
C                11.9148465642       29.7849489895       77.9258786895
H                 9.6260088896       34.7675365684       77.0274528311
H                 8.0608349256       32.5082698352       75.9110086860
H                 8.6742144995       33.1449657267       78.8453789692
H                 7.6288934049       31.8407770296       78.2738653786
H                11.1755452573       33.0706233202       78.0766942254
H                 8.5387652782       29.7062093122       77.9742262037
H                13.1043328937       31.5634770176       77.9541825969
H                10.4809996159       28.2009566690       77.9209883415
H                12.7743941747       29.1322455163       77.9047673798
N                 8.6186638868       24.4400256451       84.4100725010
C                 8.5099533660       24.4008624548       82.9652670104
C                 9.8855195306       24.6496145152       82.3282720385
O                10.2331810315       24.0816677039       81.2975835366
C                 7.4673076108       25.3866608812       82.4115439853
C                 6.1128979038       25.2289498202       83.1108051228
C                 7.3099845803       25.1390085499       80.9129152571
C                 5.0924746375       26.2527105600       82.6241573667
H                 8.0890917291       25.1270908028       84.9301440999
H                 8.2228657699       23.3795209144       82.6764269430
H                 7.8444130361       26.4001967393       82.5872782679
H                 5.7317242744       24.2219783725       82.9289305885
H                 6.2280672941       25.3469296429       84.1856317375
H                 6.7913892296       25.9687803893       80.4434117221
H                 8.2781859431       25.0250975896       80.4366563937
H                 6.7385223963       24.2295682901       80.7437759416
H                 4.1883839924       26.1978832406       83.2263048275
H                 5.4963620805       27.2600626288       82.7000639288
H                 4.8158394504       26.0722546790       81.5897249457
N                10.6689747878       25.5254551428       82.9515622797
C                12.0087639266       25.7864339984       82.4721192033
C                12.8986705333       24.5554580691       82.6642967576
O                13.5554040114       24.0998407388       81.7333921651
C                12.5312510356       27.0540929075       83.1567099166
C                11.9081219005       28.2686967371       82.4620661301
C                14.0505639620       27.1350558087       83.1327715578
C                11.9141765634       29.4882635363       83.3639815422
H                10.3355749484       26.0292218319       83.7654759124
H                11.9682481481       25.9380149971       81.3845072036
H                12.1938378354       27.0220804668       84.1969071802
H                12.4589311794       28.4778397546       81.5436441032
H                10.8733098578       28.0461358839       82.1993037700
H                14.3856962497       28.1072936966       83.4803455460
H                14.4893245086       26.3774598383       83.7707625350
H                14.4173705401       26.9845771802       82.1207623686
H                11.5192168515       30.3476358882       82.8356973127
H                11.2828443397       29.3156608415       84.2321907467
H                12.9180652816       29.7288177660       83.7032620616
N                12.0449504069       21.5744149394       82.8898937843
C                11.5301118730       20.5837593968       81.9687987218
C                12.2906768535       20.5716965648       80.6314869163
O                12.5343698203       19.5417471575       80.0227899927
C                10.0615044789       20.9307723097       81.6794395461
O                 9.6388959578       20.2432594899       80.5236915992
H                11.3496327856       22.0945211089       83.4190570639
H                11.6123823879       19.5699920430       82.3813895906
H                 9.4513564456       20.6623381849       82.5520901412
H                10.0042909180       22.0129754262       81.5118507769
H                 8.7260982118       20.4887564295       80.3272336190
N                12.5818668420       21.7930059428       80.1688235816
C                13.2390830558       21.9891712376       78.9043882768
C                14.7388911968       21.6733844526       78.9242242972
O                15.4085230688       21.7257036283       77.9024798781
C                13.0622958130       23.4247627619       78.4182662293
C                11.6216119757       23.7420243352       78.0270986231
C                11.5221383912       25.2074884258       77.5658874030
N                10.6562196695       25.3863219306       76.4158997527
C                11.0178227737       25.2469121946       75.1412480821
N                12.2852392757       25.1074493477       74.7606044647
N                10.0841783088       25.3924680432       74.1973908346
H                12.4718078252       22.5874152970       80.7857957637
H                12.8029428903       21.2782114842       78.1898526886
H                13.3938936575       24.0846992327       79.2216813866
H                13.7333066792       23.5579031584       77.5658453430
H                11.3278241773       23.0730849612       77.2172145605
H                10.9685693121       23.5578827137       78.8790068838
H                11.1291003193       25.8230635553       78.3745658965
H                12.5183659448       25.5763732024       77.3161982755
H                 9.6649521075       25.3898913106       76.6189162548
H                13.0461036120       24.9004791491       75.3980459977
H                12.4840099923       24.8479369472       73.8087303703
H                 9.1086313129       25.4522620751       74.4447430767
H                10.2986010424       25.1836192411       73.2356797392
N                15.2696663647       21.4046074403       80.1233660586
C                16.6458722363       21.0064325735       80.3056246377
C                16.7423006235       19.4894523606       80.5481516211
O                15.7969873747       18.7760234016       80.8317398985
C                17.2707515304       21.7919459999       81.4619348449
C                17.2558123146       23.2906440391       81.1862405264
S                18.2075957339       24.1805586174       82.4837731671
C                17.0484666274       25.5000174790       82.9192118053
H                14.6777333820       21.2388186163       80.9309803759
H                17.1605970826       21.2320321972       79.3624432594
H                16.6933138801       21.5810543266       82.3638963918
H                18.2967958914       21.4591189834       81.6227103093
H                17.7150123463       23.5120457847       80.2226944418
H                16.2366580695       23.6713380242       81.1984684130
H                17.3850535923       25.9258355996       83.8580364973
H                17.0569307955       26.2645108386       82.1477959745
H                16.0622973102       25.0626739516       83.0233188144
N                19.0385799701       32.4153115958       85.3692226508
C                19.0969483442       31.1947046542       86.1395014401
C                20.5447847015       30.7708668206       86.3379204513
O                21.3909019281       30.9113884272       85.4634310220
C                18.2250761892       30.0856847266       85.5431907712
C                18.7079800773       29.6054588958       84.2184078661
C                18.4471894596       30.3651647997       83.0889288076
C                19.3841623543       28.3992943764       84.0940743982
C                18.8259382602       29.9144537738       81.8432192769
C                19.7768268484       27.9415348381       82.8539767832
C                19.4717552550       28.6911240583       81.7236387113
O                19.7883905475       28.1950966587       80.4965654714
H                19.5906889114       32.5210226553       84.5280290672
H                18.6800562018       31.4368416338       87.1242369785
H                18.2043377940       29.2644062815       86.2576223320
H                17.2183883479       30.4932951189       85.4451756276
H                17.9225393346       31.3038679794       83.1817899752
H                19.5757661650       27.8082703963       84.9775118144
H                18.5900160784       30.4983886725       80.9643367371
H                20.2843596978       26.9991570146       82.7234748507
H                19.3640235052       28.7469081522       79.8229935971
N                 8.2700717982       31.6343201315       72.8874567853
C                 7.6844914328       30.3935987774       73.3879371535
C                 6.2856151312       30.6157240137       73.9615388133
O                 6.1110310822       31.3391004313       74.9355247875
C                 8.5199600917       29.7274920872       74.4945388803
C                 8.1032053037       28.2639046498       74.6041056833
C                10.0156113466       29.7880408804       74.2198081469
H                 9.0397973028       32.0295776396       73.4303337921
H                 7.6114963282       29.7183650236       72.5273994524
H                 8.3104142140       30.2362040750       75.4385310016
H                 8.6298410383       27.8129619713       75.4399334874
H                 7.0380181845       28.1548436620       74.7829836149
H                 8.3561781488       27.7369840889       73.6889541137
H                10.5173290063       29.1064353011       74.8992263277
H                10.2090663059       29.4944519615       73.1952704572
H                10.4218255369       30.7750579455       74.4044225099
H                13.5004486529       34.8769015214       80.1207986008
H                17.3263798742       34.0638633080       80.5435386983
H                22.4877584254       25.8763563145       79.3845280922
H                 6.1550346077       33.8212096966       76.7392090907
H                 8.3546121017       23.6508043128       84.7527185917
H                12.9507021695       24.1107786471       83.5584739886
H                12.5730687538       21.1732175158       83.4982782343
H                17.6258593434       19.0267292307       80.4759623313
H                18.1949041079       32.5527796505       85.0875959945
H                20.8319863581       30.3625874333       87.2044209708
H                 8.5985000436       31.4993411530       72.0604649092
H                 5.4961668902       30.1679100464       73.5417363294
