 379 
 
N                 2.5201280165       95.2930364448       -1.3225978093
C                 1.6898027363       94.1381252723       -0.9629809801
C                 2.4794404675       93.0969931475       -0.1410953820
O                 2.2751793823       92.8711397911        1.0461352069
C                 1.1181961259       93.5151794713       -2.2443647417
H                 2.9923737229       95.2454826552       -2.2172056109
H                 0.8872718788       94.5045513549       -0.3138994068
H                 0.6074413827       92.5866315003       -2.0032483240
H                 0.3993838979       94.2007473133       -2.6841995682
H                 1.8925403851       93.3106631396       -2.9797670702
N                 2.2393858518       90.5339708882        3.0835333677
C                 2.0940173592       89.0852694599        2.9896664387
C                 3.2316790139       88.4176925745        3.7968831057
O                 3.0537415091       87.2870136120        4.2300425414
C                 1.8887548541       88.3858669661        1.6173053444
C                 1.1077233036       87.0351715632        1.7532364056
C                -0.3956429592       87.1969686794        1.6311106141
C                 1.4922590396       86.0210023429        0.6951512512
H                 2.5879426262       91.0730257183        2.3000229705
H                 1.1959419357       88.8538449287        3.5751036800
H                 1.3428802248       89.0591849217        0.9562429994
H                 2.8657272827       88.1763678014        1.1770167211
H                 1.3669401686       86.6099691756        2.7261179232
H                -0.8969880135       86.2549938017        1.8295362806
H                -0.7713757302       87.9445386017        2.3274009163
H                -0.6411501080       87.5133406608        0.6215439202
H                 0.8908163604       85.1229527695        0.8077280787
H                 1.3518913973       86.4188639793       -0.3062597767
H                 2.5349004549       85.7312198626        0.8004101822
N                -0.9120518962       90.0099849312        8.5597990188
C                -1.6898825442       89.0211434721        7.8501298862
C                -2.9178172757       88.7199877453        8.7423473323
O                -3.9632500608       89.2064961900        8.3306160659
C                -0.7490021312       87.9249635036        7.3037700503
C                -1.2237186998       87.1073025887        6.0524893534
C                -2.4128876764       87.7315752587        5.2970652825
C                -0.0573268473       86.8822068291        5.0776982877
H                 0.0161297216       89.7594308652        8.8690849961
H                -2.1335258875       89.5393577168        6.9897248491
H                 0.1636484704       88.4524932339        7.0177724789
H                -0.4896799927       87.2318402334        8.1035101420
H                -1.5522516639       86.1236722471        6.4074034133
H                -2.6981842256       87.0770507385        4.4789604445
H                -3.2687956177       87.8519485870        5.9550904153
H                -2.1336966406       88.6979259667        4.8864047312
H                -0.3735892942       86.2676150031        4.2430198230
H                 0.2867652924       87.8417593630        4.7141525442
H                 0.7779362978       86.3845447353        5.5635850816
N                -5.4280200648       91.2063269676        8.3192751691
C                -5.9463120306       90.9895834120        7.0035924242
C                -6.7973642146       89.7694144175        7.0282538216
O                -7.8893501676       89.7540209887        6.4881068011
C                -4.8399736213       90.9693816657        5.9622616119
C                -4.9443928795       92.2673506664        5.1522162692
C                -5.3210821025       93.5078678663        5.9742051506
O                -6.3778421988       93.6465668061        6.5822530435
N                -4.4291328811       94.5135219618        5.9524261185
H                -4.4260183983       91.1727471530        8.4612887623
H                -6.6659732340       91.7844412178        6.7795636191
H                -3.8829892283       90.9280412006        6.4773242472
H                -4.9298441336       90.1086513027        5.3002877593
H                -4.0144026702       92.4560550358        4.6163360502
H                -5.7528103561       92.1530138131        4.4243341784
H                -3.5829283803       94.4714534454        5.4134219591
H                -4.6915740438       95.3760550683        6.4030431559
N               -10.2143346750       89.2000318849        7.5732703264
C               -10.9859677446       89.7118180436        6.4826380620
C               -11.7951043129       88.7434195301        5.6037785742
O               -12.8753897193       89.1579323343        5.1932066947
C               -10.1436206171       90.5856087354        5.5351678225
C                -9.3862114722       89.8498468367        4.4321260952
C                -9.6996676183       90.5801892224        3.1287203802
O               -10.8739321070       90.9557922206        2.9318359015
O                -8.7230787693       90.7709766033        2.3599172417
H                -9.2206768098       89.2528418058        7.3601543041
H               -11.7673617675       90.3553306131        6.9176042746
H               -10.8644978059       91.2438311409        5.0405575793
H                -9.4771913561       91.2118894881        6.1264593690
H                -8.3085037984       89.8702092232        4.5443612024
H                -9.7096059473       88.8193965186        4.3170440725
N               -11.3478398117       87.5221418943        5.2145712469
C               -12.1826589339       86.8241386002        4.2492096211
C               -12.5559603962       85.4156519640        4.6625292968
O               -11.7435055057       84.6375336970        5.1543066124
C               -11.6184743773       86.7639285777        2.8224331606
O               -12.6727107637       86.3405187134        1.9996791742
H               -10.5013284642       87.1223541107        5.5976257450
H               -13.0952951614       87.4314910004        4.2038641267
H               -11.2210292080       87.7419595631        2.5347133379
H               -10.8359678489       86.0090959826        2.7438719173
H               -13.2430303821       87.0908059763        1.7892576236
N               -11.6355672430       81.8727538304        0.3425948538
C               -10.8510935069       82.7080898582       -0.5188153987
C                -9.3501536361       82.6598950637       -0.1664701935
O                -8.4620811169       82.7000287230       -1.0085467609
C               -11.4000117390       84.1653330608       -0.2732800667
O               -12.6766013616       84.1075049982        0.3526656990
C               -11.3954515089       84.9412065844       -1.5999242093
H               -12.2847631723       82.4433572994        0.8885155267
H               -10.9762774507       82.4010956351       -1.5642976788
H               -10.7038546236       84.6456770029        0.4260586045
H               -12.7621526600       84.8769512791        0.9516107781
H               -11.6659618810       85.9761750315       -1.4173873583
H               -10.3820169530       84.8969430324       -1.9892946360
H               -12.0794380135       84.4914571433       -2.3104651683
N                -9.1734799635       82.6843295431        1.1607949673
C                -7.9183805673       82.4870728047        1.8407767347
C                -7.3511239933       81.1509292051        1.4251825386
O                -6.2979231536       81.1289806291        0.8074786454
C                -8.1063805777       82.5610491915        3.3520153461
C                -8.9392321304       83.7603500144        3.8522033166
C                -8.7842324967       83.9424336222        5.3604793283
C                -8.5115839669       85.0480093407        3.1613831004
H                -9.9866439761       82.4257552204        1.7099983276
H                -7.2132583619       83.2506903718        1.4925131714
H                -8.5749816764       81.6360850312        3.6940286502
H                -7.1088567775       82.6013373311        3.7972362373
H                -9.9962440725       83.5653906785        3.6489111947
H                -9.3723344996       84.7892601742        5.6937207424
H                -9.1302991065       83.0542356003        5.8857080662
H                -7.7388375280       84.1074838217        5.6160077745
H                -8.9528475487       85.9014119065        3.6673315046
H                -7.4299186627       85.1473650572        3.2341294823
H                -8.7890108309       85.0548045152        2.1121792033
N                -7.0305792835       80.8435205252       -2.4766009292
C                -5.9274836749       81.6500503005       -2.9395802577
C                -4.5433942175       81.2349557755       -2.3928151761
O                -3.5000017377       81.3792462102       -3.0332773154
C                -6.1345447022       83.1366038973       -2.6086385415
C                -5.6493465394       83.5620142469       -1.2069010522
S                -3.8254264066       83.8239789192       -0.8339822096
C                -3.3821432846       85.2382959231       -1.9219395833
H                -7.6221389111       81.2954201409       -1.7852026084
H                -5.8618002366       81.5232379145       -4.0239926946
H                -5.6196812960       83.7270745420       -3.3723666298
H                -7.1974214630       83.3480678418       -2.6576976630
H                -6.1146634686       84.5149506654       -0.9698922606
H                -5.9254058377       82.8188025542       -0.4698089827
H                -2.3510515191       85.4524987824       -1.6816388764
H                -3.5110245870       84.9078239191       -2.9427986056
H                -4.0444896439       86.0615350990       -1.6820878834
N                -2.9741291962       78.3429786917       -4.5754388129
C                -2.4478645916       79.2383596278       -5.6000680053
C                -1.0420567590       79.5841147917       -5.1459512687
O                -0.0061299396       79.0732955727       -5.5832808202
C                -3.2941582276       80.5243653523       -5.8215570663
C                -4.7806716831       80.2849734755       -6.2436922673
C                -5.5516734726       81.5844497211       -6.5624489025
C                -7.0802963148       81.5387997265       -6.4732547439
N                -7.7077433734       80.7612673537       -7.5576541850
H                -3.7877362962       78.7184595274       -4.1063908261
H                -2.3685956493       78.6701601243       -6.5387800009
H                -3.2919538627       81.1376034973       -4.9275567229
H                -2.7882284232       81.0694542157       -6.6190095386
H                -4.7910728636       79.6355597985       -7.1206359115
H                -5.2917215281       79.7477423489       -5.4408273525
H                -5.2111467158       82.3665342853       -5.8811910514
H                -5.2995342267       81.9104547530       -7.5702715201
H                -7.4204073496       81.1239729503       -5.5219533471
H                -7.4542361002       82.5559935653       -6.5771743098
H                -8.7134946267       80.9425586351       -7.5570001524
H                -7.3280297209       80.9157132029       -8.6209035770
H                -7.5648856951       79.7627687191       -7.3920914387
N               -10.8709616056       93.6814857928       -1.2882710052
C                -9.5355068461       93.6732430632       -0.6113989020
C                -8.5768257842       94.5756416439       -1.4433563389
O                -8.4270529996       94.2876591586       -2.6207716389
C                -9.0153068608       92.2050509413       -0.6023405287
O                -7.8309043577       92.0974427171        0.1298095083
H               -11.4638273230       92.9272439812       -0.9013911666
H               -11.3519579992       94.5839544027       -1.1338689352
H               -10.7259668179       93.5608615712       -2.3095465175
H                -9.6310375487       94.0264083084        0.4162334653
H                -9.7824958582       91.5596910627       -0.1622551728
H                -8.7993522715       91.8987321369       -1.6291876302
H                -8.0537888793       91.7052188866        1.0052123023
N                -8.0798133687       95.6726349411       -0.8217265126
C                -7.0833724874       96.4653153387       -1.5445100681
C                -5.9844868027       95.4087756570       -1.9580038789
O                -5.7952806955       95.0732047122       -3.1135733685
C                -6.5900723992       97.7977303497       -0.8856385863
C                -6.8862384903       98.1699093984        0.5731412717
C                -5.6084460688       98.0566115281        1.4805927646
O                -4.8396789410       97.0902369025        1.2663281267
O                -5.4743713404       98.9344590229        2.3530546851
H                -8.0468670738       95.7049893123        0.1875072774
H                -7.5532755980       96.7286659951       -2.5008524412
H                -5.4989279373       97.7871332309       -0.9930700603
H                -6.9551152566       98.6071287577       -1.5164186074
H                -7.2189652482       99.2054580436        0.6456246480
H                -7.6506384121       97.5435571515        1.0342299819
N                -5.4767751966       94.8045041614       -0.8692952137
C                -4.6009288923       93.6364335237       -0.8332316694
C                -5.0384589501       92.4089444102       -1.6975561358
O                -4.9896168491       92.4133393521       -2.9154600565
C                -4.4557980687       93.3671031213        0.6590953286
H                -5.4242859778       95.3730211929       -0.0289188523
H                -3.6205963113       93.8972132060       -1.2666999187
H                -3.7706952598       92.5444860885        0.8549790430
H                -4.0532629191       94.2610218126        1.1305286170
H                -5.4234010561       93.1499902682        1.1057107723
N                -5.3734240600       91.2905469222       -1.0418294397
C                -5.4560938951       89.9800991552       -1.6510651383
C                -6.2216813525       89.8325008060       -2.9414550746
O                -6.0964826556       88.7785939995       -3.5594155879
C                -6.2096939863       88.9410213285       -0.7873770119
C                -5.6089185929       88.5052603304        0.5598460808
C                -6.2801334870       87.2080707586        1.0099665689
C                -4.1072376294       88.2805067235        0.4693687354
H                -5.6246928740       91.3412249492       -0.0653229876
H                -4.4447935304       89.6100543817       -1.8287606634
H                -7.2127614080       89.3282454355       -0.5955517072
H                -6.2978225831       88.0469648783       -1.4084056772
H                -5.8156162219       89.2785851896        1.3061597430
H                -5.9346692271       86.9424659456        2.0038270004
H                -7.3594039010       87.3327288250        1.0421325776
H                -6.0314979134       86.3976784134        0.3284327229
H                -3.7480475163       87.7967248531        1.3733501103
H                -3.8683679125       87.6419489539       -0.3748742069
H                -3.5725175990       89.2228379867        0.3661863403
N                -7.1672046540       90.7131527129       -3.2874395343
C                -8.1170486604       90.3005138072       -4.3143613577
C                -7.4170750841       90.0137881361       -5.6696633672
O                -7.9038887682       89.3180857044       -6.5457952109
C                -9.2371565165       91.3365374676       -4.4652669986
C               -10.6085013808       90.7150553155       -4.8020102813
C               -11.3815990927       90.1223454704       -3.6099462273
C               -12.6227363041       89.3214654778       -4.0280060547
N               -13.6998319934       90.1929756517       -4.5841280803
H                -7.1502493800       91.6639161581       -2.9493312348
H                -8.5269962468       89.3382573080       -3.9828686357
H                -9.2889285868       91.9354456999       -3.5572167156
H                -8.9571968018       92.0224237205       -5.2677905857
H               -11.1875673588       91.5186930814       -5.2593226595
H               -10.4353721960       89.9520077647       -5.5623279665
H               -10.7231632014       89.4482521131       -3.0638603700
H               -11.6712716122       90.9223986635       -2.9312052448
H               -12.3418734475       88.5931481313       -4.7892226866
H               -13.0206292685       88.7965614005       -3.1603363991
H               -14.5100239524       89.6337178447       -4.8871223360
H               -14.0133581940       90.8781191132       -3.8790583782
H               -13.3434332113       90.7115397875       -5.4024347442
N                -6.2398215311       90.6398844007       -5.7045658702
C                -5.1792672900       90.7399747785       -6.6866644104
C                -4.3431902559       89.4096878662       -6.7972474009
O                -4.0582629873       88.8202524661       -7.8305403955
C                -4.3604724603       92.0274005794       -6.2191322919
C                -3.3093766891       91.7427545783       -5.1096462126
C                -5.2810015347       93.2050297706       -5.7999353680
C                -2.4665380823       92.9398053811       -4.6403806638
H                -6.0410480789       91.2364630320       -4.9120004002
H                -5.6030371614       90.9347042138       -7.6768126990
H                -3.8045742629       92.3425010967       -7.1089772629
H                -3.8409250104       91.3514898146       -4.2514154581
H                -2.6180007500       90.9867039772       -5.4853949843
H                -4.7333139984       94.1272522655       -5.9755544161
H                -6.1812515348       93.2385340155       -6.4050848647
H                -5.5270762966       93.2036077849       -4.7471940659
H                -1.6770872780       92.5758640923       -3.9880753034
H                -1.9999524563       93.4286918823       -5.4931656519
H                -3.0686403849       93.6633400575       -4.1021051247
N                -4.0127652588       88.9843107456       -5.5760740470
C                -3.4296110292       87.7431456830       -5.1692081551
C                -4.3962252142       86.5493776496       -5.3703884504
O                -4.3255404460       85.5428677252       -4.6837408835
C                -3.1010039524       87.7913069014       -3.6635650140
C                -1.8752829526       88.5925483741       -3.1827008651
C                -2.1776270932       89.9216958818       -2.4928570478
C                -1.1077245395       87.7302165513       -2.1622912708
H                -4.5748462953       89.4072852721       -4.8475765979
H                -2.5395945047       87.5319639446       -5.7752850779
H                -4.0127504081       88.0994634944       -3.1585939226
H                -2.9250530641       86.7561620644       -3.4008756852
H                -1.2371557474       88.7784327870       -4.0496126588
H                -1.2683585147       90.5160852887       -2.4619547193
H                -2.9349666870       90.4876673979       -3.0086636280
H                -2.4785729879       89.7416837046       -1.4641192511
H                -0.2253757057       88.2621094866       -1.8160847699
H                -1.7440246813       87.5059139379       -1.3134141887
H                -0.7839642322       86.7970795677       -2.6179128281
N                -5.3146189184       86.6725639553       -6.3442869342
C                -6.1523903376       85.5544347319       -6.7102444510
C                -5.6558553421       84.9814209139       -8.0348044336
O                -6.0015847985       83.8682208424       -8.3880382338
C                -7.6883954870       85.8866336167       -6.7855972611
C                -8.6454026359       84.8379585936       -6.1820164883
O                -9.2970271803       84.0595506303       -6.8607810754
N                -8.7280223723       84.8630512346       -4.8400257589
H                -5.4174984950       87.5210324827       -6.8690983308
H                -5.9803571210       84.7945886290       -5.9348936773
H                -7.8488672139       86.8413373676       -6.2841654389
H                -7.9594519092       86.0039339066       -7.8362334955
H                -9.2974317116       84.1823960148       -4.3611671175
H                -8.1343803829       85.4670757779       -4.2977284270
N                -4.8117172264       85.6922400124       -8.8100238254
C                -4.8104827678       85.2416313638      -10.1987304859
C                -3.4414102010       84.7579726082      -10.4498741726
O                -2.6028185832       85.4343256946      -11.0462961324
C                -5.2060551995       86.3304746302      -11.1713017622
C                -6.5125875133       86.8996755534      -10.6391292516
O                -7.2825825646       86.2105567461       -9.9859071951
N                -6.6934672988       88.2206983853      -10.8618080902
H                -4.5633376477       86.6572941737       -8.6251623326
H                -5.5338660774       84.4197968670      -10.2585297602
H                -4.4561963861       87.1192111930      -11.1782978578
H                -5.3564735893       85.9263229193      -12.1707643515
H                -7.5567935508       88.6550935801      -10.5747591150
H                -6.0792329729       88.7416994216      -11.4631502830
N                -3.1312794179       83.5797893200       -9.9662540136
C                -1.9930838396       82.9210641152      -10.5366501646
C                -1.2917841684       83.7345678000      -11.6569783021
O                -0.1020972276       83.9812710439      -11.4300490838
C                -2.3744032579       81.4876010113      -10.9594899443
C                -1.1896840608       80.9123341685      -11.7327734856
C                -3.6492155721       81.3428290634      -11.7909393826
C                 0.0700044396       80.8975630445      -10.8762433604
H                -3.8493309005       83.0085533813       -9.5382172777
H                -1.2147636305       82.8414971925       -9.7688452800
H                -2.5031285384       80.9050802334      -10.0453424954
H                -1.4275175107       79.8936626343      -12.0399774655
H                -1.0395623189       81.4741859009      -12.6555374754
H                -3.6371450080       80.3631535445      -12.2656933041
H                -4.5479867985       81.3987492381      -11.1785466861
H                -3.7286525782       82.0830339292      -12.5835666040
H                 0.8075141785       80.2304524122      -11.3092224646
H                 0.4986088430       81.8829779433      -10.7472625786
H                -0.1888428572       80.4910206313       -9.9023731548
N                -0.6202276390       86.5796513177      -12.5523135280
C                -0.3067690695       87.7797724784      -11.8302047905
C                 0.4288795258       87.4807908796      -10.5230676317
O                 0.9683388207       88.2623570543       -9.7499138416
C                -1.6443651569       88.4210588511      -11.3962165309
O                -2.0054456203       87.8434271697      -10.1608035424
C                -2.7120639094       88.4288956471      -12.5120005679
H                -1.5725070741       86.2754912338      -12.4059057734
H                 0.2651273579       88.4577293234      -12.4671028327
H                -1.4285537419       89.4654692747      -11.1394505578
H                -2.2737923252       86.9234776916      -10.3279019663
H                -3.5309407811       89.0688681330      -12.1952212492
H                -2.2613374033       88.8674869124      -13.3959042463
H                -3.1067473463       87.4501807591      -12.7589381420
N                 3.7863878486       88.8224596395       -9.5513441425
C                 4.4240826365       89.5597749601       -8.4709150449
C                 5.4994247018       88.6683159681       -7.8159936624
O                 6.3860597303       89.0904305670       -7.0834202543
C                 3.4250842720       90.2228411432       -7.5128689146
C                 4.0752573248       91.4632031116       -6.7845997354
C                 3.3853678813       92.8622853355       -6.4905986120
O                 3.4864874774       93.5120807708       -5.4375619153
N                 2.7452832237       93.3727200954       -7.5529611883
H                 2.7943921161       88.5997836682       -9.5232158830
H                 5.0141871713       90.3633101575       -8.9470012523
H                 2.5630599244       90.5178943672       -8.1138133843
H                 3.0852136786       89.5109531715       -6.7626199125
H                 4.4975537787       91.1129218166       -5.8442911284
H                 4.9345513064       91.7808468933       -7.3879557014
H                 2.6345341423       92.8476589460       -8.4018398656
H                 2.2840326082       94.2661382586       -7.4696832744
H                 2.0087911217       96.0330724228       -1.3522850339
H                 3.2040405478       92.5621295606       -0.5756936643
H                 1.4378284308       90.9058964290        3.2543464029
H                 4.0881464591       88.9093123441        3.9542791583
H                -0.7930692329       90.7316371319        8.0353362202
H                -2.8109171353       88.1711296418        9.5713992861
H                -5.6703498617       92.0240472193        8.6066944788
H                -6.4755779866       88.9446800054        7.4932987367
H               -10.3814297813       89.6846687208        8.3130043074
H               -13.4931778378       85.0898628464        4.5380908861
H               -12.1037054469       81.2854338090       -0.1532900264
H                -7.8366090941       80.3078453884        1.6565132431
H                -7.5591495117       80.6293519956       -3.1728374944
H                -4.4667091692       80.8294782718       -1.4819324189
H                -3.2114149656       77.5611158744       -4.9527795058
H                -0.9013442502       80.2759851580       -4.4377737584
H                -1.8040592048       84.0096814098      -12.4705425520
H                -0.5083102492       86.7216198787      -13.4339707321
H                 0.5148128481       86.5375955501      -10.2021345631
H                 3.8742007434       89.2810375365      -10.3207563909
H                 5.4991325212       87.6819195200       -7.9803772435
