 497 
 
N                20.7122443997       39.3350875891       75.9842219560
C                19.6380758259       39.8581841595       75.1642926624
C                19.3886560891       41.3501875741       75.3981208418
O                18.8076739978       42.0493623430       74.5884834429
C                18.3909350786       39.0239853884       75.4426495374
C                17.1784566930       39.3961685628       74.6439101238
C                16.2542566395       40.2806257676       75.1840117077
C                16.8933268947       38.7426505256       73.4510323484
C                15.0177628336       40.4538909910       74.5959279782
C                15.6510126832       38.9079101791       72.8665779363
C                14.7068274942       39.7399184137       73.4505750564
H                20.4589926050       38.6992817770       76.7502369912
H                19.9207057900       39.7497336781       74.1122400872
H                18.6443537840       37.9796299864       75.2514602768
H                18.1551319493       39.1048173865       76.5080970604
H                16.4699546934       40.7729091672       76.1206685854
H                17.6108208037       38.0547473506       73.0342890345
H                14.2895856476       41.1018538763       75.0551475903
H                15.3877386039       38.3733163535       71.9668627872
H                13.7262546698       39.8383576196       73.0070190483
N                19.9292355198       41.8529644434       76.5221069723
C                20.0574115794       43.2885583551       76.6977196780
C                20.9113678755       43.8968445427       75.5548368321
O                20.6451143009       44.9901174851       75.0882441746
C                20.6948521378       43.5951930322       78.0614836940
C                19.7147235724       43.5821386702       79.2437621234
C                18.7897348328       44.8060034712       79.2379169076
C                17.9703316498       44.9184341273       80.5243607487
N                17.2089621665       46.1929313188       80.5392143644
H                20.2975747989       41.2355537281       77.2309732474
H                19.0717920403       43.7602387184       76.6164447970
H                21.4747601669       42.8539881953       78.2455627247
H                21.1715701365       44.5746432874       78.0128505264
H                19.1232535454       42.6669371483       79.2472070073
H                20.3005933717       43.5931875101       80.1626496700
H                19.4073522045       45.6997879516       79.1402242142
H                18.0991248929       44.7585765455       78.3970765753
H                17.2596942908       44.0944722027       80.6021967393
H                18.6151231556       44.9022979074       81.4035098168
H                16.5112052348       46.2773594086       81.3669069247
H                17.8352804849       47.0018320008       80.5779199165
H                16.5908547577       46.2679347684       79.7207833537
N                13.9919399292       45.9849588502       70.4977405722
C                13.1611469802       45.1244701362       71.3103405416
C                11.8934063072       45.8055283412       71.8218652803
O                10.8911015966       45.1579970051       72.1176701151
C                13.9662282619       44.5211473735       72.4681855598
C                14.2740381297       45.4959951307       73.6113296080
C                15.7267780264       45.3653678837       74.0687458004
N                15.8787966745       45.9829966905       75.3688129406
C                17.0110682837       46.3089270200       75.9647752441
N                18.1859513729       46.2448958240       75.3556117959
N                16.9544309211       46.6700231549       77.2704469546
H                14.6607428263       46.5847997724       70.9639788326
H                12.8229629076       44.3108215067       70.6544516484
H                13.3942099337       43.6746032626       72.8433207203
H                14.8932260702       44.1376003174       72.0471521591
H                14.0895244871       46.5248794432       73.3068459552
H                13.6119881560       45.2973144995       74.4567548851
H                15.9934331217       44.3049928956       74.1408420878
H                16.3831818314       45.8630026911       73.3511003496
H                15.0383964725       46.0227261445       75.9520007281
H                18.2742928992       46.0532862518       74.3624944346
H                19.0428428326       46.4552182121       75.8425955796
H                16.0161637191       46.7717691264       77.6428660614
H                17.6506395305       47.3151710061       77.6118120080
N                11.9568221016       47.1346500131       71.9137401137
C                10.8136058746       47.9182500461       72.3189524573
C                 9.6312916555       47.5743937790       71.4022683195
O                 8.4904957416       47.3985071769       71.8249874478
C                11.1791753987       49.3999383360       72.2554886972
C                10.0531472671       50.2862432045       72.7842682198
C                 9.7242025418       49.8808151602       74.2119984850
O                10.3464771765       50.2963972022       75.1762878797
N                 8.7060655800       49.0068481252       74.3197951524
H                12.8161193025       47.6389893472       71.7280072417
H                10.5278167446       47.6381682445       73.3417395443
H                12.0692919038       49.5521389173       72.8642765294
H                11.4063470616       49.6613052315       71.2200376560
H                10.3804528370       51.3253533234       72.7865645340
H                 9.1691972207       50.1918926963       72.1531576608
H                 8.2959358655       48.5708818943       73.5043321948
H                 8.4470799142       48.6755553702       75.2342703130
N                 9.1933114217       44.7411103029       69.8915132967
C                 8.8286215240       43.3384791882       70.0452328623
C                 7.8364315657       43.1494882652       71.1931796127
O                 6.8732985920       42.3992746007       71.1103318454
C                10.1023953334       42.5109454800       70.2149778842
C                 9.8902216070       41.0499479438       69.8501576416
C                11.2288363954       40.3246206137       69.4829931160
O                11.0922666296       39.2020410088       68.9387347204
O                12.2984022512       40.8816923215       69.7587546055
H                10.1715774492       44.9313535753       69.7269197946
H                 8.3053375837       43.0219942057       69.1298242835
H                10.8601693259       42.9228614578       69.5407713808
H                10.4802559115       42.6164950060       71.2327372820
H                 9.4177847196       40.5092415627       70.6720577040
H                 9.2306754392       40.9690515375       68.9832278649
N                 8.1471952242       43.8714488853       72.2728670802
C                 7.2726939982       44.0409595425       73.4112839326
C                 5.8466748116       44.3708700866       72.9588922935
O                 4.8761037005       43.6890296653       73.2619936765
C                 7.7693240801       45.1976573172       74.2826297408
C                 6.7811491335       45.3961585467       75.4277409409
C                 9.1780761382       44.9260997866       74.7942538098
H                 8.9715038317       44.4571690915       72.2274497338
H                 7.2317657334       43.1105733226       73.9928602406
H                 7.7995670033       46.1007945917       73.6663485408
H                 7.0338390977       46.2887128795       75.9949285724
H                 5.7683716576       45.5160167992       75.0555040558
H                 6.8101308715       44.5369083133       76.0937625033
H                 9.5021652259       45.7322708230       75.4481800140
H                 9.2177782580       44.0021851624       75.3673894516
H                 9.8926064136       44.8612441195       73.9807695836
N                 2.2707549954       37.7545907737       79.7429421865
C                 3.4484593968       38.4671519816       80.1770841236
C                 4.6663767761       37.9161243703       79.4703018817
O                 4.9326644935       36.7179145032       79.4959731833
C                 3.6678060743       38.2912976362       81.6845571094
C                 2.5667575421       39.0370053047       82.4443405797
C                 5.0622768035       38.7809931636       82.0638483552
C                 2.2858549879       38.4201108578       83.8054088175
H                 2.1489986580       36.8065346940       80.0947753616
H                 3.2927869041       39.5209448661       79.9440425761
H                 3.5844999442       37.2239522492       81.9122831259
H                 2.8572493112       40.0820489625       82.5641773081
H                 1.6504972319       38.9963356500       81.8508496795
H                 5.1999227456       38.7069204129       83.1404016405
H                 5.8400565391       38.1846520320       81.5941684452
H                 5.1946132760       39.8207456879       81.7774389085
H                 1.4548849529       38.9278043325       84.2874888379
H                 2.0373698793       37.3653685111       83.7028102836
H                 3.1486717390       38.5016566409       84.4589305497
N                 5.4533409340       38.7763941653       78.8401296611
C                 6.6422951759       38.2895203190       78.1494543803
C                 7.8561820801       38.2973993053       79.1011236761
O                 8.3227963229       39.3296128955       79.5775066944
C                 6.7965484948       39.2846689682       77.0026286523
C                 6.3024787585       40.6011197692       77.5951896286
C                 5.1995007824       40.1839004958       78.5835374174
H                 6.4739239815       37.2622060652       77.8200428350
H                 7.8240540770       39.3488247467       76.6611406229
H                 6.1520171936       38.9782554824       76.1785428617
H                 7.1026376285       41.1016511647       78.1369084868
H                 5.9252471174       41.2739864113       76.8299858196
H                 5.2618351053       40.7652203939       79.5054295918
H                 4.2071768476       40.2981813325       78.1382627061
N                 8.3497465338       37.0848269005       79.3593651067
C                 9.5647512673       36.9174599016       80.1052445791
C                10.7380953067       36.6414578372       79.1995811420
O                10.6398471343       35.8564899853       78.2661930049
C                 9.4606610245       35.6860291817       81.0015429508
C                10.7984497935       35.4065219683       81.6888303232
C                 8.3474372688       35.9082107054       82.0122059233
H                 7.9822084722       36.2671488727       78.8780962828
H                 9.7422289134       37.8180524849       80.6981058721
H                 9.2016392378       34.8356124754       80.3621032471
H                10.6743488422       34.6346209158       82.4436137300
H                11.5503781837       35.0780564612       80.9776893496
H                11.1678104118       36.3112826468       82.1689354912
H                 8.1483022556       34.9928204871       82.5616013632
H                 8.6387020441       36.6762493260       82.7247582342
H                 7.4454601158       36.2407878698       81.5118604507
N                11.8741764332       37.2347371158       79.5602982118
C                13.1576379665       36.8252007366       79.0339255274
C                13.9166252010       36.0525159429       80.1287084136
O                14.1811906221       36.6075306969       81.1914972802
C                13.9620557896       38.0647484247       78.6456895693
C                15.3483102590       37.6670939386       78.1753506700
C                13.2339829063       38.8431557482       77.5648945852
H                11.8955786786       37.8241637683       80.3846133149
H                12.9770499563       36.1857693560       78.1678246872
H                14.0565199869       38.6969959721       79.5378995127
H                15.8847507695       38.5323735084       77.7927664746
H                15.9346827425       37.2569338849       78.9955725965
H                15.2810512794       36.9248758490       77.3894666642
H                13.7188449222       39.8015090112       77.3986574387
H                13.2500019357       38.2892460717       76.6291270423
H                12.1996618497       39.0263504519       77.8427632075
N                12.5866596569       34.0699624143       74.9674383129
C                11.3779812105       34.8495049278       75.1575146304
C                10.2336798310       33.8311179141       75.3063325350
O                10.0986945933       32.9342526183       74.4830527675
C                11.1888691734       35.8916263553       74.0178095341
C                11.7883943604       35.4464958980       72.6878759038
C                11.3592779908       36.3440477779       71.5190449331
C                11.7657116090       35.7191232260       70.1699250557
N                11.1142819355       36.3819475111       69.0029564436
H                12.5769739510       33.4165256470       74.1977372220
H                11.4844335120       35.3824223908       76.1058688513
H                10.1196336976       36.0834579917       73.9167008196
H                11.6534138620       36.8265925736       74.3325680336
H                12.8747254573       35.4506017569       72.7695115190
H                11.4504368133       34.4270304433       72.4924994965
H                10.2790273568       36.4741829666       71.5592853636
H                11.8058469102       37.3320941170       71.6217279775
H                12.8456659535       35.8148572930       70.0527044772
H                11.5121986796       34.6589833264       70.1655419179
H                11.5047672372       36.0434935813       68.1147086110
H                10.0918182709       36.2821902894       69.0088455470
H                11.2759422575       37.4273963996       69.0252538586
N                14.9944375066       37.1226310882       89.5869340580
C                14.5179260944       38.2160974764       88.7595593558
C                15.6693226064       39.2113058562       88.6476592547
O                16.3565205710       39.5234719780       89.6179790467
C                13.1944302127       38.7654953701       89.2804819822
C                12.8054905978       39.9963027505       88.4759726059
C                12.1051562337       37.6944365068       89.1787485101
H                14.8103819847       37.1565789280       90.5886127510
H                14.3551563991       37.8063554994       87.7551163536
H                13.3178565816       39.0394504396       90.3324556640
H                11.8262593981       40.3441018879       88.7872417795
H                13.5111020772       40.8096678057       88.6144164840
H                12.7707157440       39.7583860731       87.4138675378
H                11.1785920709       38.0887891863       89.5796138422
H                11.9431687095       37.4363481098       88.1343014516
H                12.3843904038       36.7960672246       89.7198079833
N                15.9731877713       39.5834845194       87.4018969337
C                17.0378305429       40.5296416041       87.1483468652
C                18.4126400026       40.0476330031       87.6392705530
O                19.3056290882       40.8529692918       87.8416732558
C                16.7623540112       41.8978433955       87.8110974427
C                15.4760620836       42.5549532592       87.3113349257
O                14.5400453528       42.7353688669       88.0765083668
N                15.4496681112       42.8956535273       86.0055501806
H                15.3447464560       39.3779929018       86.6258378975
H                17.1188113848       40.6482165929       86.0628943035
H                16.6612555050       41.7524162777       88.8857412069
H                17.6167847401       42.5458664981       87.6154445945
H                14.6482658910       43.4051265525       85.6678791742
H                16.2803066927       42.8813740317       85.4397571826
N                 4.9287239763       39.2992247172       89.5530169710
C                 6.3182697550       39.5457464934       89.2114232651
C                 6.4531371758       40.7068789353       88.2207971819
O                 7.4344398596       41.4476990563       88.2194589948
C                 7.0152770812       38.3234506692       88.5944212940
C                 6.6406102927       37.0110977251       89.2849474816
C                 8.5272035010       38.5210087393       88.6618544162
C                 6.7923284464       37.0318976046       90.8022110319
H                 4.5524995032       38.3610938495       89.5094258418
H                 6.8499832328       39.8501264537       90.1243645351
H                 6.7054073613       38.2440160022       87.5462763222
H                 5.6144550983       36.7445523028       89.0512740466
H                 7.2750211167       36.2242732241       88.8706963342
H                 9.0267619493       37.6607159442       88.2241367477
H                 8.8331047164       39.4107229734       88.1191213250
H                 8.8477002403       38.6279332465       89.6943846423
H                 6.4833697208       36.0660610076       91.1872117002
H                 7.8239597609       37.2039742357       91.0950535398
H                 6.1663346908       37.7927280151       91.2600123711
N                 5.4829936098       40.8216155464       87.3171081515
C                 5.5296543224       41.7825917014       86.2272331815
C                 5.2782716859       43.1930713772       86.7507887187
O                 5.9456220765       44.1629877661       86.3822052630
C                 4.4685044835       41.4062752424       85.1799943561
C                 4.6361723666       42.1808495670       83.9007372849
C                 5.7657811873       41.9666842610       83.1189606906
C                 3.6934866173       43.1050493235       83.4723949209
C                 5.9457672143       42.6385001255       81.9284885548
C                 3.8671130779       43.7942917889       82.2866623614
C                 4.9942464495       43.5636994689       81.4990708889
O                 5.1148157965       44.2398048326       80.3349346285
H                 4.7220491791       40.1520731657       87.3150671320
H                 6.5354245390       41.7686207423       85.7885274901
H                 4.5788011167       40.3383453594       84.9825271051
H                 3.4819387542       41.5671158272       85.6159153147
H                 6.5062926307       41.2576349088       83.4514452921
H                 2.8246649567       43.2953322975       84.0821769461
H                 6.8198137975       42.4449602785       81.3261952961
H                 3.1711135675       44.5583332780       81.9777679188
H                 5.9551973208       43.9725438680       79.9038050057
N                 4.2418485728       43.2804529653       87.5749138213
C                 3.9425536622       44.4563642282       88.3707501581
C                 5.2305066758       44.9921883053       89.0064201446
O                 5.5861098896       46.1544793241       88.8590009395
C                 2.9057360477       44.0770798070       89.4315244980
C                 2.6751854244       45.2077187331       90.4260732017
C                 1.3447247512       45.0712441122       91.1659340985
N                 0.9961991857       43.7341496154       91.6417730054
C                 1.3488650554       43.2038445431       92.8187413170
N                 0.5001555831       42.3336904887       93.3921824747
N                 2.4588503834       43.5596017798       93.4401970040
H                 3.7668013965       42.4253537134       87.8495763719
H                 3.5323579845       45.2446726792       87.7271675283
H                 1.9798074026       43.8187811812       88.9166546570
H                 3.2567199814       43.1942841029       89.9667599327
H                 3.5052565456       45.2350050929       91.1271850002
H                 2.6513672612       46.1667676387       89.9076217549
H                 1.3537571290       45.7541147890       92.0187787964
H                 0.5382478618       45.3603828554       90.4920948863
H                 0.1584242140       43.3480001221       91.2311713786
H                -0.3965153334       42.1204243738       92.9880493203
H                 0.7371906567       41.8735356810       94.2556248788
H                 3.3066311454       43.9190756586       92.9419391691
H                 2.6887518690       43.0985698044       94.3064628830
N                 8.5780719171       44.1063543249       88.7326088665
C                 9.9342058708       44.1266182849       88.2069436064
C                10.0343036171       44.2644135552       86.6754529436
O                11.0923017643       44.0015883638       86.1064698368
C                10.7411517438       42.8538188518       88.5889016129
C                10.6055658851       42.4148917339       90.0209424730
C                 9.5884941718       41.5323905210       90.3768934737
C                11.4941685404       42.8155000538       91.0072871236
C                 9.4377477600       41.0923765128       91.6717714892
C                11.3415936494       42.3941662550       92.3196296390
C                10.2853400447       41.5603908745       92.6748198108
O                10.0127371359       41.2005319010       93.9676297992
H                 8.0246074806       43.2993054662       88.4495787031
H                10.4255923767       45.0015197667       88.6512320614
H                10.3783917735       42.0508019935       87.9418132983
H                11.7868772278       43.0378178008       88.3418158387
H                 8.9005921749       41.2043080346       89.6173955202
H                12.3072260381       43.4788465864       90.7501247570
H                 8.6387849224       40.4251603096       91.9575282268
H                12.0079999560       42.7607528662       93.0890650749
H                10.6537487530       41.5958903145       94.5722282900
N                 8.9534525367       44.6529061494       85.9757916750
C                 9.0765579082       44.8076475288       84.5206427685
C                10.1724050779       45.8379096569       84.1950961240
O                10.2945713871       46.8853199363       84.8214364981
C                 7.7374352390       45.1430533733       83.8398314251
C                 7.5394507132       46.5892344705       83.3549758492
C                 6.2838911938       47.2366062335       83.9296557201
C                 6.4620145561       47.5573275118       85.4209421423
N                 5.4398787846       46.8655299743       86.2497460564
H                 8.0734966155       44.8239444296       86.4427970683
H                 9.4475904257       43.8471534949       84.1386303537
H                 7.6486437732       44.4845606219       82.9753442877
H                 6.9445166144       44.8590325678       84.5319824021
H                 8.3975849375       47.2132265474       83.5968693222
H                 7.4859389321       46.5964765442       82.2650884323
H                 6.0894388004       48.1506446811       83.3703739545
H                 5.4421715611       46.5607831316       83.7709788145
H                 7.4544518170       47.2416416716       85.7428448343
H                 6.3834345158       48.6304718336       85.5906833738
H                 5.5403493345       47.1088917546       87.2563723510
H                 4.5023009474       47.1257467828       85.9178096095
H                 5.5738083011       45.8206512202       86.1920017979
N                11.0214916941       45.4787481026       83.2282952264
C                12.0482988472       46.3964253452       82.7928616087
C                11.4758806153       47.6809435873       82.1686477961
O                10.2942143744       47.8815797618       81.9382211373
C                12.9119774788       45.7074472149       81.7404000843
C                14.2250061808       46.4296251141       81.3733794932
O                15.1639338434       46.3593402168       82.2176666402
O                14.3370254246       46.9512479942       80.2505152183
H                10.7792313954       44.7627245456       82.5521523108
H                12.6457419542       46.6954439772       83.6687625290
H                13.1946303569       44.7249963393       82.1256306863
H                12.3175663337       45.5807806291       80.8345045046
N                12.4659021908       48.5333422250       81.8284864574
C                12.2183365097       49.8042969166       81.1781568205
C                11.3049110461       49.4995004722       79.9923828188
O                10.2751152551       50.1273489503       79.7930588453
C                13.5263295525       50.5015449293       80.7531789325
C                14.7421140381       50.1843081002       81.6354546448
C                14.6011796932       50.2094211044       83.2087585116
O                13.5964595514       50.7245403094       83.7365277124
O                15.5680905466       49.6949398480       83.8087512374
H                13.3504950643       48.4478593186       82.3007777458
H                11.6643224583       50.4618902291       81.8646262198
H                13.7683344379       50.1990732523       79.7319625482
H                13.3352079488       51.5741629973       80.7645868234
H                15.1207340676       49.1882423117       81.3954179800
H                15.5370153119       50.8978966719       81.4088461506
N                11.7724679019       48.5470189645       79.1634263995
C                10.9046025078       47.9268019567       78.1754243653
C                10.0692289492       46.8262232769       78.8406027835
O                10.2869833928       46.3925027300       79.9553118888
C                11.7128631493       47.3490416536       77.0213506305
C                12.6613579455       46.2044495342       77.5167391621
O                12.1552154085       45.2491641417       78.1290022901
O                13.8586816063       46.3354200529       77.2006802044
H                12.5307985316       47.9661490023       79.5115258336
H                10.2310099071       48.7205207041       77.8244926143
H                11.0380654062       46.9267214537       76.2752374747
H                12.3050936793       48.1379072977       76.5564487121
N                 9.0339428171       46.3561790784       78.0956831573
C                 8.0222410674       45.5733138356       78.7630219804
C                 8.3835382913       44.1210107323       79.0190936700
O                 7.5215277883       43.3714919959       79.4807530603
H                 8.7810220884       46.8248412718       77.2414163128
H                 7.8531132059       46.0003801990       79.7627703227
H                 7.0843807393       45.6144328543       78.2093460020
N                 9.6037024376       43.6840306914       78.7243128374
C                10.0040724901       42.3856386395       79.2317657396
C                10.2923841324       42.4451144107       80.7324299268
O                10.7012496349       43.4616664128       81.2738073679
C                11.3174892297       41.9614038989       78.5767535203
C                11.1886250349       41.6158244079       77.1188833283
C                10.2870245527       40.6520934812       76.6936253903
C                12.0295962869       42.2108430335       76.1903495910
C                10.2283092548       40.2872114649       75.3600944747
C                11.9648549244       41.8482947316       74.8595060513
C                11.0688412011       40.8814377480       74.4390057809
H                10.3505720789       44.3421839356       78.5200537094
H                 9.1936156610       41.6750726789       79.0406815797
H                12.0162780406       42.7901692648       78.6928920498
H                11.7153465834       41.0994475756       79.1206653986
H                 9.6542018953       40.1699888895       77.4242796227
H                12.7252661915       42.9688909634       76.5218529451
H                 9.5403192468       39.5255819794       75.0345959543
H                12.6028817091       42.3311790425       74.1353975503
H                11.0215294500       40.6110037033       73.3947859139
N                10.1537700255       41.2806406866       81.3864375022
C                10.7472182025       41.0411141037       82.6987046274
C                11.8723656306       40.0153402173       82.5146633992
O                11.6633901958       38.9118732766       82.0203235849
C                 9.7256494361       40.5660543247       83.7415966183
C                 8.7230836518       39.5840539523       83.1637680094
C                10.4878887234       39.9174155288       84.8828780483
H                 9.7471707799       40.4872499200       80.9032040579
H                11.1780626847       41.9955064901       83.0199742113
H                 9.1996058541       41.4527898077       84.1125454539
H                 8.0569725760       39.2315491054       83.9466157784
H                 8.1276166080       40.0292044445       82.3705323940
H                 9.2536603182       38.7297274509       82.7522219586
H                 9.8062709821       39.6428003380       85.6852662271
H                10.9942023952       39.0153433651       84.5473646319
H                11.2301064156       40.5994055738       85.2965204805
N                13.1034334872       40.4234338996       82.8369974240
C                14.2552677746       39.5680928753       82.6474820185
C                14.5145778830       38.7376362511       83.9356980714
O                14.4417742103       39.2355355535       85.0613193707
C                15.4888653116       40.4145924793       82.3145488186
C                15.4816871841       41.1278932814       80.9828777525
C                14.5662956937       42.1296581744       80.6502548435
C                16.4921711368       40.8456479576       80.0699533270
C                14.6717868242       42.8576401743       79.4777504182
C                16.5946371323       41.5481153801       78.8851042885
C                15.7044260243       42.5765276119       78.5865778815
O                15.8456658571       43.3315557934       77.4672161713
H                13.2414730062       41.2709476316       83.3653656505
H                14.0178743839       38.8686541701       81.8406501523
H                15.5982677668       41.1543509180       83.1147802750
H                16.3606377237       39.7577977726       82.3402495188
H                13.7575431982       42.3815097549       81.3222154760
H                17.2210724644       40.0776782551       80.2850067927
H                13.9840746528       43.6621663678       79.2627942283
H                17.3936380276       41.3053752358       78.1983550235
H                16.5536685459       42.9640205192       76.9137243647
N                14.8247491608       37.4596538819       83.7357068692
C                15.1667047999       36.5367182106       84.7855107160
C                16.4456918484       35.8340082209       84.4040849919
O                16.6158649379       35.4354351277       83.2573991980
C                14.1301301175       35.4244937988       84.9105800502
C                12.7549437535       35.9804772174       85.1758276683
S                11.7468844177       34.5660589778       85.6204945538
C                10.1625138082       35.4264915867       85.8039022039
H                14.8106248063       37.0677204571       82.7959127738
H                15.2796131475       37.0793709182       85.7268854169
H                14.1206674422       34.8496728200       83.9809865036
H                14.4347107607       34.7636075366       85.7252015747
H                12.7691775099       36.6973017579       86.0005913257
H                12.3458938461       36.4636087518       84.2863104117
H                 9.4616656424       34.7250287171       86.2385370154
H                10.2966621180       36.2710976656       86.4729209205
H                 9.8197157075       35.7574862276       84.8286611503
N                 9.2141687242       32.8427415082       70.0937908923
C                 8.5397506689       33.4679542433       71.2810574857
C                 7.6002249117       32.4175066071       71.9565211247
O                 6.4314147359       32.3372032976       71.6380316353
C                 7.6771304318       34.6661634885       70.8496686958
C                 7.6663554753       35.7147171828       71.9401762959
C                 7.2992544826       35.3756281554       73.2356101784
C                 8.1029674410       37.0129210617       71.6757046892
C                 7.3955944455       36.3216514561       74.2381847050
C                 8.2169060489       37.9564237034       72.6829069021
C                 7.8609644613       37.6000422569       73.9660364673
H                 9.7642363401       33.5404301581       69.5699031171
H                 9.8324383976       32.0691518569       70.3912135179
H                 8.4954440512       32.4609293045       69.4514466978
H                 9.3042641671       33.7857475337       71.9960957407
H                 8.0382286045       35.1190591966       69.9284937852
H                 6.6540668928       34.3182290191       70.6807238387
H                 6.9447633232       34.3841466287       73.4652215741
H                 8.3398394060       37.3163458122       70.6655579480
H                 7.1423441791       36.0747766792       75.2587187135
H                 8.5713402033       38.9532484429       72.4653610584
H                 7.9335325457       38.3135094898       74.7690928763
H                21.2841589617       38.8691469139       75.4686513778
H                21.6929917261       43.3903661530       75.1907711829
H                14.4837583520       45.4835358300       69.9349887673
H                 9.7725670622       47.4848412776       70.4163567570
H                 8.7508212221       45.0914875653       69.1904867657
H                 5.6762245606       45.1749643346       72.3893493608
H                 1.5352342472       38.2046808911       80.0006787095
H                14.1912984810       35.1038254361       79.9720530226
H                13.2801625992       34.6231437629       74.8156355967
H                 9.5990504222       33.9010499289       76.0759785749
H                14.6211018984       36.3518339908       89.3103615389
H                18.5751821244       39.0729613572       87.7928779791
H                 4.7790792917       39.5520097304       90.4037262077
H                 5.8047487389       44.3875547688       89.5583842191
H                 8.6046138090       44.1010946773       89.6322020324
H                17.1607994100       35.6909400185       85.0883018178
H                 7.9602360279       31.8030417518       72.6585360375
