 123 
 
N                67.6040000000       55.4380000000      210.6980000000
C                66.3510000000       56.0560000000      210.2850000000
C                65.2930000000       54.9950000000      210.0180000000
O                64.1170000000       55.1810000000      210.3590000000
C                66.5680000000       56.9610000000      209.0620000000
C                65.2680000000       57.4320000000      208.5600000000
C                67.4450000000       58.1690000000      209.4250000000
H                68.2690000000       55.6000000000      210.1770000000
H                66.0350000000       56.6150000000      211.0130000000
H                67.0200000000       56.4520000000      208.3720000000
H                65.4180000000       58.0450000000      207.8240000000
H                64.7520000000       56.6690000000      208.2560000000
H                64.7980000000       57.8850000000      209.2770000000
H                67.5620000000       58.7220000000      208.6370000000
H                67.0080000000       58.6780000000      210.1250000000
H                68.3070000000       57.8510000000      209.7360000000
N                63.8840000000       54.1740000000      213.4130000000
C                63.0540000000       55.1980000000      214.0330000000
C                61.6710000000       55.1930000000      213.4080000000
O                60.6390000000       55.2170000000      214.0960000000
C                63.7190000000       56.5710000000      213.8900000000
C                62.7260000000       57.6380000000      214.3310000000
C                65.0120000000       56.5810000000      214.6540000000
H                64.5660000000       54.4730000000      212.9820000000
H                62.9630000000       54.9990000000      214.9780000000
H                63.9540000000       56.7710000000      212.9700000000
H                63.1600000000       58.5050000000      214.3010000000
H                61.9650000000       57.6290000000      213.7300000000
H                62.4360000000       57.4450000000      215.2360000000
H                65.4530000000       57.4340000000      214.5170000000
H                64.8220000000       56.4550000000      215.5970000000
H                65.5760000000       55.8620000000      214.3310000000
N                62.4980000000       63.6050000000      207.7550000000
C                61.6770000000       64.0250000000      208.8710000000
C                61.2030000000       65.4440000000      208.7050000000
O                60.1130000000       65.7580000000      209.1640000000
C                62.4500000000       63.9430000000      210.1840000000
C                63.0880000000       62.6050000000      210.5400000000
C                62.4060000000       61.3980000000      210.3880000000
C                64.3510000000       62.5650000000      211.1010000000
C                63.0100000000       60.1750000000      210.7570000000
C                64.9600000000       61.3820000000      211.4660000000
C                64.2910000000       60.1930000000      211.2910000000
O                64.9350000000       59.0500000000      211.6640000000
H                63.3440000000       63.6220000000      207.9070000000
H                60.9190000000       63.4220000000      208.9190000000
H                63.1680000000       64.5950000000      210.1490000000
H                61.8380000000       64.1620000000      210.9040000000
H                61.5430000000       61.3980000000      210.0410000000
H                64.8070000000       63.3640000000      211.2370000000
H                62.5570000000       59.3710000000      210.6440000000
H                65.8170000000       61.3880000000      211.8280000000
H                65.7350000000       59.2200000000      211.8550000000
O                66.8920000000       59.4200000000      213.5960000000
H                67.5690000000       59.8780000000      213.3790000000
H                66.4240000000       59.9180000000      214.0860000000
N                68.9190000000       59.3010000000      218.0989943848
C                68.2310000000       59.2490000000      216.8049943848
C                66.7570000000       59.5510000000      217.0019943848
O                66.1350000000       60.2200000000      216.1749943848
C                68.3660000000       57.8730000000      216.1069943848
C                69.7970000000       57.5070000000      215.6999943848
C                70.3880000000       58.4360000000      214.6549943848
O                69.6970000000       58.8110000000      213.6629943848
O                71.5450000000       58.8650000000      214.8849943848
H                69.2320000000       58.5470000000      218.3719943848
H                68.6530000000       59.9020000000      216.2239943848
H                68.0490000000       57.1860000000      216.7149943848
H                67.8250000000       57.8800000000      215.3029943848
H                70.3650000000       57.5450000000      216.4859943848
H                69.7970000000       56.6090000000      215.3329943848
N                66.5510000000       63.3190000000      217.2709943848
C                66.6660000000       63.8990000000      215.9339943848
C                65.3370000000       63.8330000000      215.1609943848
O                65.0130000000       64.7240000000      214.3529943848
C                67.7710000000       63.1660000000      215.1619943848
C                68.1270000000       63.7310000000      213.7949943848
C                68.8860000000       62.6870000000      212.9439943848
C                70.2100000000       62.2920000000      213.5779943848
N                70.8950000000       61.3530000000      212.6899943848
H                67.1480000000       62.7300000000      217.4589943848
H                66.9050000000       64.8350000000      216.0169943848
H                68.5790000000       63.1880000000      215.6979943848
H                67.4880000000       62.2490000000      215.0259943848
H                67.3150000000       63.9770000000      213.3259943848
H                68.6960000000       64.5090000000      213.9049943848
H                68.3420000000       61.8890000000      212.8569943848
H                69.0690000000       63.0610000000      212.0679943848
H                70.7670000000       63.0770000000      213.6979943848
H                70.0530000000       61.8620000000      214.4329943848
H                71.6710000000       61.1050000000      213.0489943848
H                70.3910000000       60.6300000000      212.5649943848
H                71.0500000000       61.7370000000      211.9019943848
N                64.5800000000       62.7560000000      215.3509943848
C                63.3130000000       62.6350000000      214.6479943848
C                62.3320000000       63.6610000000      215.1739943848
O                61.6900000000       64.3680000000      214.3989943848
C                62.7840000000       61.2410000000      214.8399943848
C                61.3270000000       61.0740000000      214.6039943848
C                60.8010000000       60.9180000000      213.3759943848
C                60.4650000000       61.1020000000      215.6689943848
C                59.4110000000       60.7170000000      213.2059943848
C                59.0980000000       60.9240000000      215.4959943848
C                58.5740000000       60.7420000000      214.2479943848
H                64.7740000000       62.0980000000      215.8699943848
H                63.4360000000       62.7880000000      213.6979943848
H                63.2460000000       60.6520000000      214.2229943848
H                62.9620000000       60.9700000000      215.7539943848
H                61.3570000000       60.9420000000      212.6299943848
H                60.8010000000       61.2440000000      216.5239943848
H                59.0730000000       60.5650000000      212.3529943848
H                58.5350000000       60.9280000000      216.2359943848
H                57.6580000000       60.6390000000      214.1259943848
H                67.8320667441       55.7382974690      211.5151945854
H                65.5453266245       54.1403428086      209.5642463668
H                64.2015705903       53.6200278505      214.0472426805
H                61.5719666967       55.1698191720      212.4131859199
H                62.2902666909       62.7584204345      207.5310582407
H                61.7758325946       66.1098139165      208.2269261070
H                69.6166133609       59.8671322720      218.0457980568
H                66.2795618980       59.2059506542      217.8100747073
H                66.6243681922       63.9699256312      217.8881758257
H                62.2013604355       63.7685519447      216.1595733432
