 432 
 
N                20.7191377246       39.1941284173       75.9183593088
C                19.6360757036       39.7552567833       75.1404203891
C                19.4730467520       41.2676566373       75.3525427968
O                18.9590737039       41.9811140477       74.5105488925
C                18.3587351306       38.9770982354       75.4833073352
C                17.1665234033       39.3587509156       74.6554695591
C                16.1919853095       40.1965903698       75.1771958803
C                16.9859747159       38.8213412629       73.3879161096
C                15.0476969771       40.4918272748       74.4598435520
C                15.8361160413       39.1050811184       72.6713474554
C                14.8649534171       39.9405684200       73.2026761282
H                20.4821288285       38.5067399602       76.6467618936
H                19.8656203663       39.6171348104       74.0772473120
H                18.5877388169       37.9179620558       75.3436304069
H                18.1387396189       39.1122239674       76.5465732922
H                16.3050823579       40.5736660596       76.1820514465
H                17.7284788945       38.1473387065       72.9909801066
H                14.2921593968       41.1253941188       74.8965034168
H                15.6757731988       38.6509298895       71.7066526564
H                13.9668385847       40.1577110942       72.6441455318
N                19.9753241502       41.7595276389       76.4995900723
C                20.0817829336       43.1915714312       76.7204623812
C                20.9558343598       43.8722253729       75.6420612884
O                20.7145513685       45.0106205064       75.2762096561
C                20.6959723526       43.4875714307       78.0970493305
C                19.7151426540       43.4071548969       79.2734540094
C                18.8149703361       44.6433168953       79.3735615233
C                17.9712303292       44.6063874552       80.6465891042
N                17.2334618566       45.8750447672       80.8545104415
H                20.3055402111       41.1331235203       77.2197013294
H                19.0888019049       43.6486936734       76.6397408974
H                21.5090415803       42.7787216509       78.2656638343
H                21.1323719386       44.4871685423       78.0720391293
H                19.1075231211       42.5044011913       79.2075132501
H                20.3006482172       43.3276580714       80.1900040961
H                19.4498040519       45.5299668463       79.3943901354
H                18.1531903844       44.6943517444       78.5096937412
H                17.2426525679       43.7952624549       80.6016081452
H                18.6011791657       44.4379741003       81.5199793454
H                16.4576454456       45.7558775615       81.6128509662
H                17.8499896929       46.6379674108       81.1463812052
H                16.7114223565       46.1602519262       80.0188957713
N                20.0112244720       43.8749308717       71.3170812129
C                18.9095664953       44.7258050672       70.9080280722
C                19.0712878025       46.1622027977       71.4253637256
O                18.6170178789       46.4770877007       72.5256220606
C                17.6085987620       44.2168304348       71.5655225561
C                17.1738470580       42.7979316166       71.2221746479
C                16.4802882715       42.6912295160       69.8669112990
C                16.3345414345       41.2302465501       69.4619962752
N                17.5589971352       40.8007990985       68.7126103422
H                20.4106447152       44.0617002947       72.2235634362
H                18.8670712185       44.7175848862       69.8156077567
H                17.7948590937       44.2502850071       72.6383449142
H                16.8192393538       44.9241874874       71.3107006625
H                18.0391650408       42.1434754978       71.2801781005
H                16.4845603075       42.4576514781       71.9967817272
H                15.4957921546       43.1536353900       69.9200917082
H                17.0471873522       43.2322073561       69.1101096058
H                16.2183475626       40.6209744801       70.3581930363
H                15.4527394383       41.0881987720       68.8386130035
H                17.4631031294       41.0649167624       67.7226037101
H                18.3967238267       41.3123238792       69.0773615009
H                17.6825305327       39.7821046268       68.7708143629
N                19.5818002521       47.1126363542       70.6390757031
C                19.4532294369       48.4719749325       71.1396197083
C                17.9932104390       48.5984017040       71.6036375493
O                17.0992865662       48.1292678848       70.9081268888
C                19.7395426137       49.5007440383       70.0434201748
O                21.0848253858       49.3682391884       69.6585668760
H                20.0324608715       46.9541926703       69.7519898662
H                20.1450177303       48.6330059582       71.9738842972
H                19.0701642006       49.3284271865       69.1896191139
H                19.5376073005       50.4982970679       70.4543837485
H                21.3232424764       50.0879839805       69.0639152455
N                17.7372576431       49.3116708903       72.7058097515
C                16.3883432137       49.3972024357       73.2584343212
C                15.3413528242       49.3300748029       72.1451187833
O                14.4832626639       48.4539903328       72.1396564567
C                16.2446040015       50.6840355499       74.0859781626
C                14.7960155323       51.0973587611       74.3914692481
C                14.0068610645       49.9940411316       75.0891527376
C                14.8148503087       52.3487782100       75.2689159732
H                18.4879007135       49.6286870628       73.3022682873
H                16.2006049187       48.5245053472       73.8979689592
H                16.7649238327       50.5485749473       75.0352411760
H                16.7196019311       51.5145323803       73.5604365302
H                14.2847808503       51.3560624857       73.4577675567
H                12.9950636765       50.3381055577       75.3004349468
H                13.9401577137       49.0952155619       74.4815530158
H                14.4715879286       49.7442369454       76.0409221386
H                13.8059898623       52.7059049706       75.4661220337
H                15.2784046508       52.1442762477       76.2317071418
H                15.3552132684       53.1653984054       74.7948054900
N                15.3998659040       50.2939144622       71.2221452999
C                14.4117373507       50.4578168323       70.1698749713
C                13.9897071677       49.1086901186       69.5607440811
O                12.8043898985       48.8229805894       69.4026451267
C                14.9980982147       51.3499511029       69.0784201671
H                16.0608631697       51.0491091092       71.3339237842
H                13.5038460362       50.9207567241       70.5820362800
H                14.2778049078       51.4657191957       68.2729020830
H                15.2165422083       52.3362141021       69.4812471163
H                15.9073601040       50.9091652799       68.6786013492
N                14.9995879494       48.3466538421       69.1315654163
C                14.7844423031       47.1160137247       68.3873991200
C                13.7646516924       46.2270317924       69.1121496116
O                12.8249809799       45.6876276811       68.5479843132
C                16.1040454418       46.3379584743       68.1666484244
C                17.2851604124       47.2017059265       67.6886701487
C                15.8469763670       45.1887551442       67.1925825294
C                17.0904590169       47.9063436131       66.3515438060
H                15.9168490107       48.4766002637       69.5463751685
H                14.3317480699       47.3770804233       67.4226278238
H                16.3959277967       45.9331803748       69.1415769908
H                17.5112370817       47.9433830515       68.4545230426
H                18.1519279133       46.5436562035       67.6105170434
H                16.7742696332       44.6632642204       66.9880222740
H                15.1104125661       44.5005632983       67.5965556668
H                15.4545616662       45.5716789176       66.2546146218
H                17.9600055002       48.5186055574       66.1240328631
H                16.9644991630       47.1927412637       65.5427701545
H                16.2185424518       48.5563575397       66.3717054374
N                14.0576634569       45.9948185134       70.4103823389
C                13.2030062617       45.1423859508       71.2114613310
C                11.9358028416       45.8341794797       71.7015942343
O                10.9000717084       45.2040552966       71.8946166244
C                13.9734778635       44.5274534108       72.3880291499
C                14.2258756673       45.4763584030       73.5703454717
C                15.6582942542       45.3277172206       74.0805248514
N                15.8094779877       45.9391975990       75.3847507497
C                16.9692651472       46.2095014590       75.9643862752
N                18.1228121096       46.1598422213       75.3160775571
N                16.9608652031       46.4848184468       77.2882092171
H                14.6980392200       46.6129545479       70.8932973316
H                12.8676567470       44.3335603542       70.5486573366
H                13.4090488217       43.6586827494       72.7225703808
H                14.9235830183       44.1740126306       71.9954209695
H                14.0637285796       46.5124633734       73.2792507601
H                13.5279287686       45.2634368988       74.3827387567
H                15.9105206546       44.2638959853       74.1560900119
H                16.3354856120       45.8210359200       73.3804702694
H                14.9880110416       45.9589882408       75.9932042800
H                18.1850830584       46.0629974345       74.3071835080
H                19.0027199092       46.3148367812       75.7874212114
H                16.0440962027       46.5915574526       77.7074062249
H                17.6931851405       47.0772281484       77.6499921595
N                12.0345458085       47.1460499286       71.9112706658
C                10.8956068939       47.9277746200       72.3341989913
C                 9.6995718154       47.5844734656       71.4365152177
O                 8.5751529841       47.3865185227       71.8870545385
C                11.2660845242       49.4078866907       72.2502348817
C                10.1370376508       50.3234926367       72.7182963045
C                 9.8026786234       50.0325142210       74.1712764205
O                10.4507876572       50.4878972984       75.1010235952
N                 8.7569652264       49.2062438919       74.3474841709
H                12.9067133761       47.6448084225       71.7700553429
H                10.6234352858       47.6600419088       73.3647951890
H                12.1407271384       49.5807937714       72.8794610008
H                11.5199427228       49.6434829547       71.2145741555
H                10.4679033435       51.3600068641       72.6497133474
H                 9.2533516649       50.1906309876       72.0938573733
H                 8.3033577203       48.7531684835       73.5672734516
H                 8.4577952345       48.9927004641       75.2852532761
N                10.0108104235       47.4994348546       70.1428764719
C                 9.0447846910       47.1339728763       69.1244978635
C                 8.3865503164       45.8066665364       69.5122084122
O                 7.1720388106       45.6838512767       69.6392247820
C                 9.7573288361       47.0243833462       67.7755490442
C                 8.7983438100       46.7060993432       66.6331624623
C                 8.0302817452       47.9624096125       66.0999866013
O                 7.9504544763       48.9543774955       66.8513413365
O                 7.5572389612       47.8536914384       64.9503708877
H                10.9241964220       47.8005609285       69.8230901039
H                 8.2553377771       47.8935391359       69.0433739818
H                10.2247856887       47.9912010374       67.5721030594
H                10.5448853831       46.2691473640       67.8348557509
H                 9.3342038826       46.2800523473       65.7845706614
H                 8.0365724485       45.9877074393       66.9468541703
N                 9.2374107524       44.7919856254       69.6747886659
C                 8.8253470116       43.4106237785       69.8682109345
C                 7.8862028254       43.2683110138       71.0661736404
O                 6.9195251136       42.5162267891       71.0478810353
C                10.0656433400       42.5247930950       70.0220900465
C                 9.7500530145       41.0504863989       69.8155561875
C                11.0198962679       40.1743369217       69.5741781204
O                10.7757454358       39.0206437193       69.1433633427
O                12.1369618828       40.6384184016       69.8189337870
H                10.2267110551       44.9667904368       69.5752029230
H                 8.2537822886       43.0962687273       68.9821947553
H                10.7877805175       42.8298666030       69.2592691619
H                10.5176449138       42.6981602244       70.9993843281
H                 9.2173668382       40.6404241294       70.6760226870
H                 9.1052440695       40.9261398850       68.9425514193
N                 8.2446744082       43.9900483172       72.1273354668
C                 7.4247346663       44.0787952283       73.3158341166
C                 5.9864853046       44.4305577747       72.9288714503
O                 5.0256736389       43.7396234255       73.2376500301
C                 7.9859623305       45.1533251118       74.2539141280
C                 7.0324250360       45.3660620580       75.4271845899
C                 9.3770854924       44.7618340236       74.7425766044
H                 9.0520611190       44.5966666640       72.0595602574
H                 7.4017455662       43.1040045849       73.8209839495
H                 8.0682806538       46.0821569825       73.6814200988
H                 7.3199786450       46.2509720377       75.9893830693
H                 6.0145293696       45.5120559745       75.0781913516
H                 7.0560186855       44.5038203592       76.0894759802
H                 9.7886722004       45.5543298935       75.3649378277
H                 9.3427701173       43.8515501561       75.3365084037
H                10.0566045945       44.6146323189       73.9089466561
N                 5.8607443897       45.5933291140       72.2810214470
C                 4.5530275661       46.0636700223       71.8714529170
C                 3.8501167856       45.0110176686       71.0057368233
O                 2.7038201778       44.6513757819       71.2400779414
C                 4.6803347079       47.3848288013       71.1290598949
H                 6.6688022595       46.0976682421       71.9417311725
H                 3.9297518348       46.1942039890       72.7670041462
H                 3.7047517469       47.7124860128       70.7815607409
H                 5.0913530779       48.1410236368       71.7920008151
H                 5.3423635628       47.2772575858       70.2722545443
N                 4.5826311358       44.5295793586       69.9991179649
C                 4.0217973198       43.6204023753       69.0231781422
C                 3.3165694273       42.4286885461       69.6725497603
O                 2.2197322001       42.0405730670       69.2829429541
H                 5.5053376726       44.9101968382       69.8260924952
H                 3.2949842684       44.1363160632       68.3845269503
H                 4.8353769972       43.2468991781       68.3994944665
N                 4.0016801993       41.8084795048       70.6365457304
C                 3.4917796076       40.5743000273       71.2055797591
C                 2.3699036936       40.8429387921       72.2137187062
O                 1.4027664773       40.0951324287       72.2819005376
C                 4.6244988678       39.7028686054       71.7822660386
C                 4.2460571286       38.2166270865       71.7228182701
C                 4.9798978422       40.1084526845       73.2104982014
C                 4.2643268496       37.6370914608       70.3124360769
H                 4.9291795646       42.1234923840       70.8949560751
H                 3.0103507911       40.0374406643       70.3779897252
H                 5.5036733447       39.8720143659       71.1500933090
H                 4.9715716051       37.6697919934       72.3270664703
H                 3.2575026300       38.0979048459       72.1692182598
H                 5.8473073011       39.5423820289       73.5404075777
H                 5.2269148729       41.1663953650       73.2582205006
H                 4.1488111970       39.9099051051       73.8828089878
H                 4.0497248805       36.5732828533       70.3516018303
H                 3.5265724690       38.1240556613       69.6801365844
H                 5.2455215655       37.7826290266       69.8663978046
N                 2.5380865326       41.9150624859       72.9942114608
C                 1.4975551592       42.3566731915       73.8965640041
C                 0.2411556664       42.7832348577       73.1344036144
O                -0.8472230804       42.8115487344       73.6930637410
C                 1.9656089656       43.5111993527       74.7945040562
C                 2.3814153921       43.0928646480       76.2072494759
C                 1.2078221199       42.5982258568       77.0593662013
N                 1.5485924543       42.7159984222       78.4693989594
C                 0.7261750559       42.5049864184       79.4893259294
N                -0.5403979900       42.1581113436       79.3156385205
N                 1.1961603612       42.6309531342       80.7373204102
H                 3.3417535411       42.5174299425       72.8699862915
H                 1.1839199206       41.4952060751       74.5006198030
H                 2.8073100649       43.9969282748       74.2979594322
H                 1.1595215928       44.2439245247       74.8662131015
H                 3.1523143565       42.3253180468       76.1443411176
H                 2.8097573608       43.9776745413       76.6807634835
H                 0.3191757978       43.1987064063       76.8417489689
H                 0.9753749253       41.5528341969       76.8361096302
H                 2.5011591716       42.9818704339       78.6780917106
H                -0.9694407991       42.0421222014       78.4025173640
H                -1.1396334427       42.0501981625       80.1158899899
H                 2.1363816341       42.9498762717       80.9167155678
H                 0.5731876933       42.5720747044       81.5242431546
N                 0.3971450495       43.0917605950       71.8425897709
C                -0.7644758217       43.4389334796       71.0486927359
C                -1.5458037459       42.1487461362       70.7476637585
O                -2.7233461109       42.0069373671       71.0472445272
C                -0.3427851628       44.1422632396       69.7663964074
H                 1.3070434485       43.3372263003       71.4744199085
H                -1.4305688674       44.0794238993       71.6431605532
H                -1.2128630784       44.3494191940       69.1499924363
H                 0.1497761073       45.0802303249       70.0105350727
H                 0.3566869342       43.5234098936       69.2096787804
N                 5.3790081999       38.7906537153       78.9217110005
C                 6.5764487721       38.3735988806       78.2010312224
C                 7.7974682975       38.3388586888       79.1345075853
O                 8.2211023597       39.3432758638       79.7021060320
C                 6.7209558332       39.4520553758       77.1279677921
C                 6.2265875954       40.7090835166       77.8398797140
C                 5.0881973332       40.2040562049       78.7312921450
H                 6.4185451625       37.3705682864       77.7977228098
H                 7.7458519545       39.5560916771       76.7867163912
H                 6.0652379092       39.2138110189       76.2903239218
H                 7.0150085654       41.1314127406       78.4601581453
H                 5.8880729506       41.4727011826       77.1446553177
H                 5.0716220462       40.7357137549       79.6849898807
H                 4.1181710065       40.3078268243       78.2350441600
N                12.6356915372       33.9895563744       75.0262230302
C                11.4308776652       34.7703429966       75.2372240273
C                10.2537518003       33.7984202459       75.3551658694
O                10.1370822237       32.8888377882       74.5420254287
C                11.2271833462       35.7830492069       74.0824434424
C                11.6835473255       35.2519593258       72.7221202996
C                11.2425730898       36.1709956716       71.5773017016
C                11.6947939085       35.6251607260       70.2177423970
N                11.0461726607       36.3579843432       69.0994359201
H                12.6002359314       33.3085313737       74.2798298170
H                11.5400899124       35.3125338167       76.1789195642
H                10.1698975067       36.0523605817       74.0546761245
H                11.7804014490       36.6919810349       74.3238066324
H                12.7712578987       35.1813013122       72.7161136962
H                11.2641645097       34.2548745085       72.5826612975
H                10.1586997294       36.2825004244       71.6042607974
H                11.6634774890       37.1647783935       71.7301440959
H                12.7742888093       35.7482194377       70.1278455174
H                11.4548359875       34.5643087490       70.1354202062
H                11.4316140670       36.0904998133       68.1866145055
H                10.0273504486       36.2420417002       69.1056624772
H                11.1756709026       37.4151338339       69.1900925105
N                10.8469503153       45.5204188677       83.2873159495
C                11.9383334035       46.3576275795       82.8432437959
C                11.4296314126       47.7103788716       82.3008545644
O                10.2758517481       48.0862775799       82.4422076812
C                12.7616464242       45.5800571317       81.8184011234
C                14.2095285768       46.0571581665       81.6343648990
O                15.0872554804       45.5091530589       82.3428580965
O                14.4677692478       46.9101488484       80.7575001002
H                10.5044004753       44.8613376669       82.6019598175
H                12.5487849158       46.6102453357       83.7269127671
H                12.8128747948       44.5432107460       82.1552788524
H                12.2445027978       45.6102523191       80.8567390394
N                12.4062056317       48.4442953343       81.7475421748
C                12.1854992689       49.7386486273       81.1357269358
C                11.3354470491       49.5033822773       79.8875794445
O                10.3018028116       50.1044119123       79.6484884719
C                13.4989310662       50.4484739935       80.7538182634
C                14.7041193947       50.1171839391       81.6323140230
C                14.5140187002       50.2729246872       83.1770477863
O                13.6380426152       51.0522728715       83.5986846315
O                15.3120531702       49.6053203312       83.8716147744
H                13.2791706023       47.9948234372       81.5005048520
H                11.6118242632       50.3514993451       81.8410262233
H                13.7555721716       50.1809530683       79.7261012592
H                13.3040757698       51.5202183254       80.7964371293
H                15.0343724828       49.0927527613       81.4619398321
H                15.5277872102       50.7834183525       81.3642208170
N                11.8822079468       48.5932352986       79.0482781519
C                11.0438137512       47.9108643818       78.0823257453
C                10.1484179357       46.9271507472       78.8541289186
O                10.2557140171       46.7578710399       80.0578714131
C                11.9095035094       47.2386591480       77.0288857857
C                12.6981029838       46.0543863051       77.6694233808
O                12.0283746069       45.2058124834       78.2864043312
O                13.9273017379       46.0396616885       77.4828806577
H                12.6145154113       48.0196725439       79.4511015912
H                10.3978814361       48.6796633692       77.6391523486
H                11.2886861882       46.8343002850       76.2280566251
H                12.6011813632       47.9698930351       76.6114200881
N                 9.1448268073       46.3675035670       78.1442917357
C                 8.1099581287       45.6281404567       78.8188213690
C                 8.4016938830       44.1605000846       79.0811117540
O                 7.5177826981       43.4448691633       79.5519520806
H                 9.1195228384       46.4368137804       77.1398094719
H                 7.9798509026       46.0801697990       79.8103019350
H                 7.1683180532       45.7167507296       78.2742480377
N                 9.6029191808       43.6916485040       78.7505816228
C                 9.9861059477       42.3788573266       79.2252730515
C                10.2148898430       42.4086020495       80.7411232795
O                10.5086771484       43.4329547805       81.3434919052
C                11.3001206915       41.9456034905       78.5701200769
C                11.1651201525       41.6200704178       77.1066728320
C                10.3409561837       40.5854550046       76.6814142309
C                11.9114158605       42.3085667140       76.1604796460
C                10.2673309100       40.2449770033       75.3415093024
C                11.8273513822       41.9757827282       74.8199646683
C                11.0099404393       40.9403226081       74.4042753076
H                10.3678079978       44.3411293228       78.5722700569
H                 9.1751014250       41.6776470051       79.0014290247
H                12.0118200787       42.7611073009       78.7010273027
H                11.6765401767       41.0693878840       79.1055766204
H                 9.7794778630       40.0281958552       77.4182848283
H                12.5584031102       43.1130469318       76.4799363110
H                 9.6458550290       39.4236549201       75.0261426468
H                12.4007657416       42.5328244427       74.0953668828
H                10.9573698548       40.6825197248       73.3569955574
N                 8.8250975552       32.8220392329       69.9918005179
C                 8.3877205106       33.4571818152       71.2836390605
C                 7.5569414368       32.3703159291       72.0365619526
O                 6.3964726596       32.1789216505       71.7254414582
C                 7.4985003613       34.6703060867       70.9697000772
C                 7.5892066655       35.7194526478       72.0477062616
C                 7.3936525485       35.3773754768       73.3794580143
C                 7.8938684508       37.0408071483       71.7314811378
C                 7.4924019381       36.3406271125       74.3680994724
C                 8.0062084150       38.0025093311       72.7213097346
C                 7.8003641206       37.6513742161       74.0427273067
H                 9.2955159403       33.4965624299       69.3682545895
H                 9.4540447096       32.0191383379       70.1613845598
H                 7.9787264388       32.4810909162       69.4993309109
H                 9.2587597458       33.7499112001       71.8731912546
H                 7.7669702502       35.1234807123       70.0157340391
H                 6.4613241169       34.3275300691       70.8943112611
H                 7.1461739972       34.3639071229       73.6554868751
H                 8.0311688382       37.3503087815       70.7058535725
H                 7.3304093965       36.0819700590       75.4026533569
H                 8.2390756056       39.0248378916       72.4596735104
H                 7.8565586917       38.3957196878       74.8206794526
N                12.4062056317       58.4748566471       78.0536230881
C                12.1854992689       57.1805033540       78.6654383270
C                11.3354470491       57.4157697041       79.9135858184
O                10.3018028116       56.8147400691       80.1526767909
C                13.4989310662       56.4706779879       79.0473469995
C                14.7041193947       56.8019680423       78.1688512398
C                14.5140187002       56.6462272941       76.6241174766
O                13.6380426152       55.8668791098       76.2024806314
O                15.3120531702       57.3138316502       75.9295504885
H                13.2791706023       58.9243285442       78.3006604109
H                11.6118242632       56.5676526363       77.9601390396
H                13.7555721716       56.7381989131       80.0750640037
H                13.3040757698       55.3989336560       79.0047281336
H                15.0343724828       57.8263992201       78.3392254308
H                15.5277872102       56.1357336289       78.4369444458
H                21.2926630007       38.7679210394       75.3711701014
H                21.7263544341       43.3789166792       75.2383963930
H                19.7362316203       43.0183170694       71.3414066155
H                -1.0916258484       41.3844430472       70.2898829972
H                 4.7597670256       38.1390241077       78.8779020687
H                 8.2774460790       37.4769590164       79.2980627258
H                13.3195447744       34.5400324019       74.8279280652
H                 9.5866254440       33.9081606810       76.0919829848
H                11.1099559276       45.0364017815       83.9990430799
H                10.1254113802       41.5689723208       81.2768615769
H                 7.9792603688       31.8367838169       72.7693581077
H                12.4074203142       58.3874703946       77.1578763787
H                11.6184096331       58.0953192183       80.5904496406
