 462 
 
N                57.9541734206       54.8513853863      214.6029831064
C                56.8286802809       55.7638080505      214.5035574350
C                55.6388354511       54.9968142349      213.9643103361
O                54.5043228860       55.2538336018      214.3504003351
C                57.0330178796       56.9624551680      213.5995039965
H                58.8857865505       55.1159797687      214.2917353232
H                56.5559003395       56.1092602381      215.5111030833
H                56.1247673113       57.5601998284      213.5844095233
H                57.8476983853       57.5880048830      213.9575650451
H                57.2550688410       56.6373839778      212.5845194144
N                55.8973445822       54.0630406681      213.0487974724
C                54.7810315341       53.3572482699      212.4816914118
C                54.0880523011       52.4791469073      213.4865389948
O                52.8665537619       52.4050347913      213.4792575537
C                55.1362044516       52.4797368359      211.3086776440
S                55.4489340279       53.5688296144      209.9082461565
H                56.8305389677       53.9776671399      212.6502420376
H                54.0408064897       54.1090978097      212.1636337870
H                56.0108642479       51.8667490318      211.5211185627
H                54.2958266295       51.8472023769      211.0255446349
H                56.6346032081       54.0025814188      210.3420725359
N                53.4886602445       52.8509183718      216.4123590240
C                52.8407090962       53.7314068814      217.3361687836
C                51.7442388243       54.6139927689      216.7325559858
O                50.7418831746       54.7538530510      217.4155954684
C                53.8900364835       54.5942676300      218.0833662605
O                55.0208529903       53.8524410261      218.4886508163
C                53.2177986972       55.2198151606      219.2866263259
H                54.4172003366       53.1093476573      216.1029405831
H                52.3063774615       53.1105316118      218.0688575316
H                54.2070141622       55.3939988376      217.3940469028
H                55.6215238883       53.7112439815      217.7399274778
H                53.9110139003       55.8684313126      219.8139922507
H                52.3544709909       55.7970187726      218.9730120051
H                52.8931471125       54.4500308981      219.9816755301
N                51.8930726885       55.1809320133      215.5123028656
C                50.8860338858       56.0423472687      214.8993805599
C                50.2176819207       55.4481830601      213.6262110407
O                49.3729496153       56.0199972747      212.9428222887
C                51.4591597079       57.4233102579      214.5340181904
C                52.0357923111       58.0671963342      215.7415210457
C                51.2519623499       58.6985268809      216.6932098845
C                53.3665240434       57.9159579462      216.0430007290
C                51.7635085309       59.1954885936      217.8758963739
C                53.8812657355       58.3986930298      217.2398348007
C                53.1177186471       59.0979833246      218.1631287672
O                53.6643260007       59.7324694004      219.2574407793
H                52.7963360097       55.1170428286      215.0522125792
H                50.0963532856       56.1814044666      215.6482728204
H                52.2384236284       57.2866105465      213.7824521345
H                50.6404571694       58.0058294501      214.1152746061
H                50.1867912349       58.8130758453      216.5365748596
H                54.0232208853       57.3907643417      215.3660363936
H                51.1036357748       59.6846588432      218.5766071259
H                54.9398679845       58.2717339039      217.4369675711
H                54.5925245203       59.4699788580      219.3411512942
N                50.6813475009       54.2541905503      213.2435042204
C                50.2175439253       53.6296539667      212.0242461180
C                49.1161015432       52.6292517542      212.3608924442
O                49.3294638261       51.4827755801      212.7462334155
C                51.3729171647       52.9289398833      211.3257066418
S                51.4062315752       53.4390337134      209.6336241528
H                51.3496484739       53.7325041387      213.7980811660
H                49.8131585896       54.4386579956      211.4066671123
H                52.3084327706       53.2678872040      211.7443386621
H                51.2968592038       51.8488168657      211.4199412854
H                50.5062358905       52.5608497201      209.1819911665
N                47.8801654752       53.1338974658      212.2324847377
C                46.7986857784       52.1865119578      212.3861030065
C                46.8051412484       51.1397969838      211.2451031207
O                46.9911005977       51.4448312689      210.0684691907
H                47.7241093418       53.9961475056      211.7372343432
H                46.9271668475       51.6884600360      213.3486963395
H                45.8470400285       52.7169953102      212.3601860850
N                59.4714203731       68.6244258824      207.2867602824
C                58.2880301013       68.4942957576      206.4344131808
C                58.4469331936       69.2516749304      205.0949176295
O                57.7523426841       68.9591941795      204.1237831629
C                57.1074148613       68.9568664832      207.2722129673
C                57.7521027812       69.2507361471      208.6181532073
C                59.1986289231       69.5880741532      208.3062852675
H                58.2092734280       67.4471349671      206.1379259604
H                56.6768682264       69.8574473514      206.8345618786
H                56.3484787896       68.1839858349      207.3415258810
H                57.2762823272       70.0608793176      209.1651230112
H                57.7420365736       68.3533803631      209.2370470222
H                59.3099032596       70.6046386249      207.9125631026
H                59.8589984651       69.4809971983      209.1679879683
N                58.1637548973       66.7401506008      202.4059173062
C                57.0359361852       65.8430420143      202.2717992402
C                56.3412249154       66.0566923191      200.9309167803
O                56.0021483471       65.0585881176      200.2946262606
C                56.0497144563       65.9105028691      203.4244214683
C                56.7346387294       65.6506673202      204.7230572073
C                57.9849613039       65.1505415972      204.9427572331
C                56.1930971973       65.9281513298      206.0246427310
N                58.2429552274       65.0760603054      206.2934515702
C                57.1502059585       65.4869789776      206.9730476437
C                54.9810015545       66.4659010322      206.4706227149
C                56.8112580679       65.3439258742      208.3034923554
C                54.6612650458       66.3788945821      207.7956684550
C                55.5418619545       65.7472848344      208.6795914297
H                58.1715111563       67.4214284274      203.1540694605
H                57.4416706319       64.8231056419      202.2141432144
H                55.5909674743       66.9032781031      203.4501982846
H                55.2648253380       65.1717048810      203.2475685399
H                58.7576828410       64.8596134382      204.2536582740
H                59.0917568926       64.6851968537      206.6673483436
H                54.3054968743       66.8914558166      205.7444610831
H                57.5233854284       64.9326908792      208.9979665617
H                53.7223887154       66.7502455246      208.1640851193
H                55.2441012968       65.6059450404      209.7074466296
N                53.0732278858       56.4985192410      201.7562426364
C                51.7513216837       56.9073216716      202.1719225767
C                51.4715522573       56.5778284951      203.6748920964
O                51.0790163318       57.4511799264      204.4462660243
H                53.1880491787       55.9147285344      200.9358426941
H                51.6314230393       57.9902450365      202.0662994791
H                51.0075929423       56.3863113654      201.5690256584
N                51.6975374647       55.2857517768      204.0095170816
C                51.7985426932       54.7994985190      205.3773835575
C                52.7189864959       55.6859701065      206.2452906143
O                52.3248989478       56.1758328084      207.3140126907
C                52.3659142577       53.4091090817      205.4123541623
C                51.3893882097       52.3612395102      204.9646544979
C                51.9649269015       51.0170929866      205.3457489982
C                50.0547971523       52.4510781175      205.6441737930
H                52.0310590149       54.6565316640      203.2857961271
H                50.8179036828       54.8578714367      205.8575039744
H                53.2698604012       53.3761879077      204.8019725242
H                52.6437564009       53.2111082755      206.4524438169
H                51.2487483146       52.4278726802      203.8793861380
H                51.3394768096       50.2005475584      204.9872007369
H                52.9627391882       50.8709053770      204.9374000834
H                52.0179147431       50.9384318265      206.4267888045
H                49.4103958529       51.6467108516      205.2911174923
H                50.1575401527       52.3445838214      206.7230362482
H                49.5348105082       53.3840402863      205.4425847252
N                53.9782953333       55.8203167641      205.7678776348
C                54.9357995932       56.5181097391      206.6091645828
C                54.4632797301       57.9204308521      206.9618250855
O                54.5581725206       58.3501186598      208.1086821445
C                56.3072118690       56.5937702116      205.9788611117
C                57.2003657940       57.4969520891      206.8316328123
C                56.8229613517       55.1767301337      205.9209258141
H                54.2574527429       55.4389390268      204.8734420175
H                55.0035608072       55.9811085293      207.5675220728
H                56.2162377449       57.0227358075      204.9765023165
H                58.2395156202       57.3963730121      206.5271373260
H                56.9183802001       58.5409371813      206.7179998972
H                57.1125822643       57.2349879169      207.8817300156
H                57.8182933697       55.1496241460      205.4811146427
H                56.8703088662       54.7594719353      206.9229550565
H                56.1713867187       54.5569213717      205.3142912478
N                54.0277074977       58.6229604219      205.9040915095
C                53.7106718348       60.0416053302      206.0107813136
C                52.5933761897       60.1684685376      207.0203381549
O                52.5726050491       61.0665296000      207.8534604010
C                53.3734416433       60.7564128926      204.7005436360
C                52.9668242138       62.2409271694      204.8870657752
C                53.9880734130       63.1116421926      205.5887791841
C                52.8617018136       62.9036024172      203.5335818636
H                54.0249752127       58.1896714605      204.9850609502
H                54.5855968081       60.5424946083      206.4533002756
H                54.2493251151       60.6906679568      204.0535044904
H                52.5576574608       60.2252612249      204.2085115202
H                52.0209809971       62.2422630651      205.4251185430
H                53.6750265864       64.1510069320      205.5989208846
H                54.1553856772       62.8179872648      206.6245046622
H                54.9439206824       63.0546769333      205.0721951330
H                52.6260261547       63.9604804047      203.6196628844
H                53.8088686574       62.8147382934      203.0104777024
H                52.1084171536       62.4332841466      202.9000304443
N                51.7001408140       59.1804056868      206.9262055517
C                50.5990684736       59.0646847568      207.8477416224
C                50.9824618811       59.2941631186      209.3311564552
O                50.3899300764       60.1301363924      210.0287694626
H                51.7124390822       58.5242423688      206.1554484807
H                49.8139519558       59.7928754919      207.6080745121
H                50.1838472584       58.0591700148      207.7660733638
N                51.9680573824       58.4285579831      209.6897639048
C                52.6534037387       58.3451686842      210.9760897309
C                53.3233871669       59.6666346135      211.2067489165
O                52.9605499669       60.3540955649      212.1494192730
C                53.6924687335       57.2443629047      211.0262660619
H                52.2935623943       57.7888902106      208.9735958716
H                51.9056869809       58.2090196776      211.7675445558
H                54.1535967212       57.2424951970      212.0112360659
H                53.2171792875       56.2784790966      210.8618563131
H                54.4507141065       57.3935301596      210.2635987522
N                54.2718056647       60.0730721043      210.3763622382
C                54.8267082321       61.3619418589      210.6960156680
C                53.7218904156       62.4068951831      211.0989959480
O                53.9050467061       63.1894685620      212.0379258008
C                55.6310807432       61.9286615637      209.5586848895
C                56.6507509263       60.9532501434      209.0162355559
C                57.2902389912       61.6243428780      207.7947175391
C                57.6761039882       60.6383087690      210.0754104646
H                54.4397727929       59.5965367116      209.4995116682
H                55.4497911800       61.2655913162      211.5965780474
H                54.9472274149       62.2102206511      208.7529955869
H                56.1348192225       62.8388602405      209.8849490579
H                56.1742956221       60.0279806779      208.6867738703
H                58.0546234659       60.9934988539      207.3452980899
H                56.5480066260       61.8467229363      207.0326856548
H                57.7684634644       62.5604225533      208.0737105973
H                58.4847037872       60.0405648720      209.6566476172
H                58.1115199608       61.5569425222      210.4678818647
H                57.2320064488       60.0816886774      210.8963723666
N                52.6612768200       62.5226882895      210.2788107970
C                51.7452974777       63.6623089763      210.3800236190
C                51.0393035040       63.5842649343      211.7532461062
O                50.9586850495       64.5653932808      212.4956829738
C                50.7734535328       63.7375711907      209.1861588735
C                51.4526899383       64.2327474385      207.9058028938
C                50.5932329780       64.2174673683      206.6094862084
C                49.9837098344       65.5884218619      206.2620924567
N                49.3382806108       65.5611708025      204.9172024581
H                52.5240642390       61.8703656433      209.5139263432
H                52.3531825979       64.5765004641      210.4183054216
H                50.3650673941       62.7366052148      209.0271295973
H                49.9483572110       64.3893042688      209.4792977202
H                51.8481784578       65.2325164496      208.0675803195
H                52.2966126140       63.5639254132      207.7421175928
H                51.2446152052       63.9356019977      205.7891937699
H                49.8136319205       63.4641122148      206.7170516110
H                49.2385140812       65.8670325309      207.0062909037
H                50.7801843759       66.3324393724      206.2505685025
H                48.9417052068       66.4858615894      204.6937091618
H                50.0183430822       65.3046422513      204.1854626005
H                48.5766646508       64.8666403593      204.9072382773
N                50.5565225595       62.3658189034      212.0218943304
C                49.9637236971       61.9366350009      213.2865497181
C                50.7610498027       62.3852002572      214.5353278765
O                50.2770054550       63.1055332251      215.3899381526
C                49.9114592459       60.3973782446      213.2615006139
H                50.6753639012       61.6196803892      211.3405322121
H                48.9611126702       62.3704375968      213.3953628239
H                49.5739832127       60.0260032344      214.2252100185
H                49.2311469058       60.0623604440      212.4844557963
H                50.9057333052       60.0180216056      213.0486975922
N                51.9775347197       61.8419207004      214.6072293470
C                53.0325432214       62.0413895102      215.5686892017
C                53.2358774415       63.5424590134      215.7625561513
O                53.2706474984       64.0410567912      216.8829257879
C                54.2607721596       61.3238949467      215.0004682245
H                52.2693388011       61.3007371999      213.7964360245
H                52.7498918818       61.6231679126      216.5448931099
H                55.1146366639       61.4688928145      215.6572524028
H                54.0418751087       60.2622965119      214.9263728942
H                54.4902022272       61.7235976804      214.0164013092
N                53.4121798531       64.2371825362      214.6236143279
C                53.5346911439       65.6976040130      214.6771101602
C                52.2791278700       66.3895322406      215.3967461243
O                52.4352023625       67.3060853085      216.2005145318
C                53.9579713112       66.3164315735      213.3359560637
C                54.1808363795       67.8168142957      213.5329559840
C                55.0077015848       68.5955988535      212.4622339401
N                54.3794541381       69.3416707510      211.3293994525
C                53.3203517178       69.0207434983      210.5597451386
N                52.3772791246       68.1098216270      210.9155483670
N                53.2278536313       69.5901046825      209.3459275584
H                53.3847171577       63.7925752119      213.7089459216
H                54.3285361005       65.9078849387      215.4130162911
H                54.8846111481       65.8244797933      213.0406214126
H                53.1964896892       66.0745318874      212.5934195004
H                53.2329787246       68.3172736113      213.7393263114
H                54.7519866084       67.9184534839      214.4579836884
H                55.5714085131       69.3588985049      212.9932397459
H                55.7206740670       67.8999886168      212.0112935242
H                55.0475055438       69.9890784880      210.9350907604
H                52.3400720190       67.7777215532      211.8645722037
H                51.5068527039       68.0860686593      210.4079578008
H                53.8975968121       70.2876714057      209.0626485063
H                52.3577334427       69.5507960385      208.8376603821
N                51.0686057867       65.8772520707      215.0697270157
C                49.7844628123       66.4071660210      215.5713461578
C                49.7169466795       66.3354539748      217.1327698240
O                49.5070541212       67.2723992249      217.9068138086
C                48.6113326031       65.6524233122      214.8679718950
C                47.2570399725       66.3045163915      215.0959299343
C                47.3237660127       67.8206677035      214.7142621809
O                47.9980484649       68.1322580310      213.7113155485
O                46.7136219112       68.6088142218      215.4652913614
H                50.9950461917       65.2042807762      214.3118916002
H                49.7089825281       67.4678578698      215.2966292229
H                48.8343711445       65.6893791306      213.8002101533
H                48.5976093185       64.6130433851      215.1974139931
H                46.4981730858       65.8088234899      214.4879494708
H                46.9546373316       66.2479654827      216.1450248541
N                49.9191712070       65.0679098963      217.5145991750
C                49.6176584230       64.5285200696      218.7936978184
C                50.6576497897       64.7937401778      219.8900676174
O                50.3047275678       64.6769745325      221.0631472200
C                49.3136495422       63.0480802859      218.6070173278
C                48.8292517561       62.4202701275      219.9174117074
C                49.2494258924       60.9241742748      219.9034988874
O                48.8260263263       60.2868411301      218.8980326081
O                49.9863299774       60.5311491547      220.8500281725
H                50.1229086321       64.3993015672      216.7784105639
H                48.7130791599       65.0259120983      219.1842536419
H                48.5689653032       62.9235272163      217.8221822559
H                50.2264595455       62.5421375309      218.2731975920
H                49.2712097505       62.9037453707      220.7839463969
H                47.7423792131       62.4750112133      219.9907160592
N                51.8982702545       65.1662284312      219.5617484144
C                52.8329144249       65.4941790264      220.6224115958
C                53.3026331222       66.9394110095      220.4936481749
O                53.0899184367       67.6063853151      219.4946619411
C                54.0629249612       64.5757495662      220.6727406439
C                53.6233598210       63.1393931982      220.8599258288
C                52.9743624961       62.9542903415      222.2262607211
O                53.0993624226       63.7347204550      223.1676244784
N                52.3387201992       61.7474716502      222.2852736288
H                52.1898682309       65.2703409385      218.6002318357
H                52.2681885458       65.3744119464      221.5539044945
H                54.6295558174       64.6809696721      219.7457916613
H                54.6980282851       64.8456475954      221.5151389208
H                52.9173407611       62.8431350149      220.0846964985
H                54.4888326130       62.4770811937      220.8122416137
H                52.0217916577       61.3107317756      221.4322482236
H                51.6984171922       61.6042107676      223.0524851592
N                53.9889840654       67.3537346347      221.6090777556
C                54.7765105666       68.5714132151      221.5210413040
C                56.1890666401       68.1582496764      221.0824443709
O                56.9624908662       67.6156788004      221.8762871550
C                54.9567889412       69.4204641624      222.7916273695
C                55.6209193562       70.7463669171      222.3792092006
C                53.6616833983       69.5588393240      223.5903804423
H                54.2564212945       66.6675912001      222.2971290588
H                54.2945403619       69.1676045078      220.7390957938
H                55.6688641151       68.8821197232      223.4289075699
H                55.8377697062       71.3509938151      223.2565288730
H                56.5544691283       70.5492007544      221.8575865438
H                54.9693404096       71.3139410306      221.7200275010
H                53.8567145275       70.1253237057      224.4964834682
H                52.9073129842       70.0731109892      223.0010556501
H                53.2999286182       68.5700156439      223.8509062819
N                56.5167782318       68.4647100795      219.8209188998
C                57.8334513890       68.2335965949      219.2970324319
C                59.0155061578       68.2779093768      220.2833195113
O                59.7684258655       67.3197023900      220.4019849170
C                58.0006280574       69.2049062383      218.1246797158
O                58.1061350968       68.2185403359      217.1336400057
C                59.1335486323       70.2527246936      218.1755408664
H                55.8056548558       68.8021597272      219.1891785038
H                57.8914663219       67.2181203804      218.8822814584
H                57.0638750272       69.7685598767      217.9769043967
H                58.3384334059       68.5872396922      216.2696570083
H                59.1307830513       70.8201293511      217.2510897911
H                58.9684121573       70.9589603537      218.9805859290
H                60.1027003873       69.7751882742      218.2918020949
N                59.0104666972       66.1900875631      223.4416968859
C                59.3411541663       64.8334397465      223.0780275525
C                60.8670076336       64.7104772095      222.9368426659
O                61.4766048082       63.7677883806      223.4338257729
C                58.5608903872       64.3633533422      221.8726988532
C                58.5544657973       62.8526479986      221.8971586484
C                57.4665746713       62.3658145119      222.8316574545
O                56.4861955577       63.0692167440      223.0026307292
N                57.5742143851       61.1153119939      223.3846864139
H                58.3897003489       66.7214341361      222.8403770866
H                59.0879515617       64.1899926617      223.9360633572
H                57.5339666415       64.7238923368      221.9555261941
H                58.9926001685       64.7563298137      220.9521260908
H                58.2836387182       62.4713306934      220.9137752152
H                59.5346351810       62.4651785978      222.1723027957
H                58.4571153979       60.6357964362      223.4076288717
H                56.8685378758       60.8142455427      224.0403422525
O                51.7007209828       69.3409120611      218.0977990631
H                51.0935961726       69.9761500366      217.7030766334
H                51.2579116600       68.4921478547      218.0385746202
N                54.1914125369       63.8987201586      228.2215798175
C                55.1497886140       63.0456816099      227.5803245736
C                55.1357774065       61.6635758904      228.2113287403
O                55.1724145280       60.6384374132      227.5247245738
C                56.5576127669       63.5858427909      227.6808856736
C                57.5122722826       62.5806759631      227.0484795690
C                56.6591660627       64.9322607031      226.9875330755
H                54.4803680753       64.8092330555      228.5555660094
H                54.8832593581       62.9161606093      226.5201379853
H                56.8266396843       63.7176260827      228.7353096327
H                58.5072982261       63.0090457408      226.9762864986
H                57.5891316781       61.6632525599      227.6250958839
H                57.1829440337       62.3301128603      226.0431143855
H                57.6775807936       65.3048773021      227.0642617713
H                56.4081842691       64.8355836070      225.9323520201
H                56.0028247117       65.6688172597      227.4414975918
N                52.5113844151       59.5466158106      227.3027357970
C                52.7472602864       58.9102832839      226.0340095932
C                53.7905725078       57.7724039312      226.1482640550
O                53.5802629994       56.7020169885      225.5744828650
C                53.1276274052       59.9124587014      224.9192379362
O                54.4623424611       59.6615249025      224.4516781148
H                52.9914245647       60.4116070363      227.5086383763
H                51.8143523095       58.4027725932      225.7564233010
H                52.4313967897       59.7949385714      224.0875196142
H                53.0696264297       60.9322745883      225.3206269293
H                54.5799871941       60.1556960086      223.6331831122
N                62.4821326856       63.8806934354      216.5264180519
C                61.3898391448       64.7282462307      217.0073806008
C                61.6772082676       66.1416549680      216.6014556664
O                60.8208186329       66.8237027336      216.0805888994
C                61.1181609297       64.6772891384      218.5164732317
C                60.2841402629       63.4941722233      218.8000383951
C                60.7441155905       62.2647641237      219.1814178552
C                58.8847732354       63.3553117654      218.5580115182
N                59.7064840965       61.3615913546      219.2283505972
C                58.5496456474       61.9954036792      218.8508489380
C                57.8883098505       64.2253704184      218.1360779512
C                57.2640781986       61.4776248990      218.7529749217
C                56.6199573300       63.6864067092      218.0037580518
C                56.3040418187       62.3523512245      218.3084502880
H                62.9558800480       63.2414839421      217.1531339858
H                60.4746608051       64.4383342411      216.4724248205
H                62.0696746973       64.6231031411      219.0475088770
H                60.5994815534       65.5942463663      218.8063401451
H                61.7494808501       61.9649208582      219.4043294148
H                59.7952381411       60.3883735586      219.4629381810
H                58.0994055116       65.2519382955      217.8807033486
H                57.0542702222       60.4496178035      218.9948743150
H                55.8168997865       64.3155244053      217.6442410205
H                55.2790083864       62.0383018290      218.1884692031
N                60.4282645519       66.8070292958      212.8804402371
C                59.0285301347       67.1224851926      212.6630775438
C                58.7330589393       68.5607153942      213.0079738185
O                57.8087262563       69.1680509080      212.4894488614
C                58.1450065431       66.3433140403      213.5838401383
C                58.1059109547       64.9280867099      213.1458922399
C                57.3004108057       64.0813113606      214.0833679301
C                57.4737685453       64.8893988948      211.7651098728
H                60.6708960598       66.0700755901      213.5325098998
H                58.7992171631       66.9694413509      211.6060029093
H                58.5416121009       66.4350476254      214.6021252969
H                57.1440140208       66.7766320943      213.5794919005
H                59.1249936427       64.5257598044      213.0976016992
H                57.3122823599       63.0444012743      213.7594095020
H                57.7187693011       64.1148234251      215.0892816876
H                56.2679932866       64.4142952137      214.1378733947
H                57.1800907248       63.8673921953      211.5300851844
H                56.5833547392       65.5086310841      211.7338380556
H                58.1573541309       65.2090290754      210.9825305402
H                58.0840245996       54.6273004776      215.4649138606
H                54.6249522627       51.9620332647      214.1531212566
H                53.5770339687       52.0365153866      216.7851027197
H                46.6541573616       50.1732418888      211.4524075205
H                59.8145941941       67.8087747645      207.4509095510
H                59.1196708563       69.9870132140      205.0130540490
H                58.9148873070       66.2613192795      202.5344500601
H                56.1751867946       66.9841936880      200.5959950684
H                53.5701551917       57.2269232626      201.5759904967
H                59.1751691627       69.0958769357      220.8359828784
H                58.6059857137       66.1955157988      224.2456655844
H                61.3801770172       65.4055315585      222.4332985907
H                53.5176468139       64.0753564211      227.6516329943
H                55.0960681153       61.5684294025      229.2059997000
H                51.6374467132       59.7471182075      227.3803997006
H                54.6241630605       57.9102116966      226.6831806936
H                62.1801735381       63.3460896166      215.8683759331
H                62.5839430091       66.5326916841      216.7593239512
H                60.8029970900       66.5519766098      212.1029290460
H                59.3005086620       69.0412903500      213.6765906923
