 74 
 
N                32.8931049552       29.8335337580        5.5390731574
C                32.9845525946       30.6515926558        4.3554777090
C                31.6176841607       30.9181555332        3.7175410733
O                31.5075969570       31.6450527623        2.7280340178
C                33.7996104510       29.9084622467        3.2914112335
C                35.2340882059       29.7287409258        3.7379095038
C                35.4580760341       28.6569644656        4.8283945375
O                34.5181462960       27.8016607320        4.9833587797
O                36.5450961106       28.7092560389        5.4431500484
H                33.3170032784       28.9064811973        5.4957668167
H                33.4378439910       31.6203978325        4.5983724751
H                33.3431101212       28.9370920337        3.0994962990
H                33.7692694212       30.4917705957        2.3704754396
H                35.8503654819       29.4074094943        2.8924907908
H                35.6548087001       30.6668231168        4.1056789433
N                28.3559300813       35.5946231731        4.3174126472
C                28.7385051664       36.5522486271        3.2713881689
C                28.8140891498       37.9479964781        3.9280017983
O                27.8582511510       38.4064327475        4.5520141197
C                27.6895802755       36.6073749871        2.1813711297
C                27.2938566410       35.2256623812        1.6015905456
C                28.0721128438       37.6495267005        1.1230361544
C                28.4411374197       34.3439703068        1.1389074233
H                27.3585046983       35.4909127184        4.4969716916
H                29.7232376405       36.2610098654        2.8986872029
H                26.7758043017       36.9808264811        2.6692016557
H                26.7458271613       34.6854171017        2.3757135443
H                26.6129468544       35.4026118830        0.7671517778
H                27.3048938758       37.6964798686        0.3552052819
H                28.1756596576       38.6355509375        1.5685136337
H                29.0187347267       37.3893421258        0.6552805034
H                28.0432365510       33.4075308529        0.7596657112
H                29.0180262409       34.8149056665        0.3469551680
H                29.1135985073       34.1033898912        1.9590882646
N                29.9327947927       38.6515668962        3.7472967886
C                30.0755410613       39.9873378025        4.2945006604
C                29.5576518120       40.9749422905        3.2444552186
O                30.0654499691       41.0097363549        2.1148114830
C                31.5841912026       40.2589704271        4.5039146465
O                31.7977561257       41.5986143718        4.9332562911
H                30.7472163934       38.2260246286        3.3154739813
H                29.5205700398       40.0713853842        5.2313521707
H                31.9914636552       39.5466839454        5.2267764052
H                32.0937165008       40.1666815472        3.5447619728
H                31.3020503908       41.7242228848        5.7592500769
O                32.7827558840       34.1605272981        5.4522913221
H                32.6839263265       34.7531617177        6.2128949724
H                31.9385856122       34.2421371396        4.9854519591
O                32.5113539555       37.5004827583        2.9854089491
H                33.3055521350       37.7072820158        3.4845966846
H                32.7870090535       37.3795964101        2.0719031984
O                35.0042279263       33.7657054707        3.6298301565
H                34.5947173921       33.5954846610        2.7788292526
H                34.2770188649       33.9009082189        4.2580817698
N                37.4924625479       34.0065426151        7.0714298063
C                36.2867065331       34.6413305214        7.5935559230
C                36.5351212744       35.2998932423        8.9457624118
O                37.3057758130       34.8090639384        9.7661014934
C                35.3515831166       33.4449530499        7.8779259104
C                35.8669627087       32.3313547389        6.9524867177
C                37.3764932485       32.5709181248        6.9048212706
H                35.8793383714       35.3405843819        6.8627028119
H                35.4469137722       33.1261883211        8.9157943845
H                34.3123562570       33.6768242248        7.6657429735
H                35.6253002164       31.3347491460        7.3061614786
H                35.4453967659       32.4634502319        5.9572293322
H                37.8906703608       32.0405406085        7.7135663031
H                37.7962561414       32.2338231441        5.9576214506
H                33.2975910745       30.2520596445        6.2255329607
H                30.7955806493       30.4996820353        4.1035796053
H                28.6519036310       34.7739663138        4.0962295171
H                28.8063848771       41.5954753537        3.4692589334
H                37.7093597094       34.3781128652        6.2809292241
H                36.0656874654       36.1508860392        9.1812261217
