 423 
 
N                51.5197290884       12.4890768671       -0.6108649134
C                51.7458905880       13.8974054964       -0.3065384483
C                51.6683488875       14.1007495617        1.1916097836
O                52.5719512927       14.7053776535        1.7695249556
C                50.9428391658       14.8840292122       -1.1588205326
C                49.4964964131       14.9846619664       -0.7572762139
C                51.0490659387       14.5604977945       -2.6456274508
C                48.8346043184       15.9321334120       -1.7381993564
H                50.9357139302       12.2094253107       -1.3871975602
H                52.8046209236       14.1093607393       -0.5425606451
H                51.4279907352       15.8549123299       -0.9868293369
H                49.0246352788       14.0045265630       -0.7673570410
H                49.4149443853       15.3922813624        0.2557184500
H                50.8150743835       15.4229125589       -3.2539412383
H                52.0633651408       14.2542380021       -2.8938280552
H                50.3865665995       13.7402313649       -2.9183930524
H                47.8434884887       16.2267885726       -1.3735233959
H                49.4219610508       16.8398575212       -1.8433558604
H                48.6902117071       15.4856522885       -2.7150359587
N                50.5992288385       13.5843261283        1.8006776871
C                50.5441850144       13.5905506563        3.2522146518
C                51.9040250027       13.3580708705        3.8779544907
O                52.3468552436       14.0892090242        4.7574160680
C                49.7007537462       12.5065656614        3.9329836788
C                48.1840245571       12.7357493139        3.7128930168
C                50.0550305392       12.4279391897        5.4289360264
C                47.7145107720       14.1384875151        4.0059619654
H                49.9646006665       12.9929171008        1.2800830793
H                50.2110718938       14.5818004064        3.5945027188
H                49.9559570946       11.5424573260        3.4799135497
H                47.9343331104       12.4851448299        2.6789739283
H                47.6643180460       12.0287759798        4.3579874530
H                49.2989065862       11.8391394436        5.9479294536
H                51.0088543741       11.9419385766        5.5922352520
H                50.0836047911       13.4147858822        5.8814409554
H                46.6449382760       14.1483625147        4.1848267198
H                48.1905415397       14.5342131189        4.9061657770
H                47.9269306938       14.8144195319        3.1800754172
N                52.4999978542       12.2103387970        3.5350346738
C                53.8498922360       12.0138328814        4.0023281757
C                54.9198608211       13.1083715918        3.6218543229
O                55.7502830755       13.4668925466        4.4553682330
C                54.2448549433       10.5629581637        3.7271005081
S                53.3790169451        9.5839055254        5.0633653645
H                52.1898590329       11.6887502210        2.7261084658
H                53.8262876226       12.1287265767        5.0954456031
H                53.8717639932       10.2391004998        2.7565736310
H                55.3199607702       10.3975068772        3.8331034693
H                54.4134862044        8.8039119299        5.3545895015
N                54.9790444968       13.6673151393        2.4198494626
C                56.0887340227       14.5434068474        2.2561526088
C                56.0181408110       15.7576634134        3.1787825094
O                57.0134263519       16.3904074441        3.5328501046
C                56.1332900683       15.0698882706        0.8342113055
O                57.3520005057       15.8127715249        0.7024704782
H                54.2676593731       13.5197977910        1.7063853460
H                57.0252297308       14.0364816920        2.5162043763
H                56.1143364645       14.2368533804        0.1249225981
H                55.2499690749       15.6919698415        0.6413254528
H                57.4665034997       16.0970623271       -0.2177331823
N                54.7720354376       16.1318602546        3.4654133579
C                54.4881070986       17.1628621411        4.4686583885
C                55.0677100573       16.8521352755        5.8983777770
O                55.7251297336       17.7175834864        6.5070943576
C                52.9630140421       17.2515752456        4.5715561360
C                52.4168438299       17.9384066507        5.8384577103
C                52.6432456288       19.4440613687        5.7028472319
C                50.9356615711       17.5325642219        6.0036290627
H                53.9843107138       15.5983215359        3.1180580631
H                54.9445762671       18.1059083495        4.1509772021
H                52.5836559976       17.7721664370        3.6944546116
H                52.5857244063       16.2243890652        4.5475699577
H                52.9681811389       17.5734141772        6.7050006520
H                52.2372496268       19.9794064471        6.5581329863
H                53.7040238769       19.6556949902        5.6294452533
H                52.1552803273       19.8155512216        4.8055294494
H                50.4981914444       17.9914831876        6.8826718130
H                50.3693562354       17.8575583355        5.1339236338
H                50.8564614725       16.4517713147        6.0722330889
N                54.6930187789       15.6578312428        6.4196057821
C                55.0144691309       15.2863979481        7.7715633793
C                56.4417457982       14.8232834710        7.9612469545
O                56.9870462639       15.1981062421        8.9874049894
C                53.9436598131       14.4070523705        8.4238356926
C                53.1663126785       13.6701112847        7.3588898090
C                54.4950362793       13.4603746830        9.4908168738
H                54.2094720465       15.0020761541        5.8197606440
H                55.0301037511       16.2448279525        8.3312868205
H                53.2347162099       15.0781109023        8.9360479618
H                52.5161170628       12.9204204588        7.8254040530
H                52.5349078195       14.3320009087        6.7850831675
H                53.8494848614       13.1352024754        6.7023821699
H                53.6794141343       12.8853675837        9.9229032348
H                55.2130031102       12.7613751936        9.0625751492
H                54.9916921964       14.0124850782       10.2823970173
N                57.0950977809       14.1874217286        6.9898253144
C                58.5348561684       14.0373631981        7.1287967602
C                59.3489106320       15.3381163442        6.8266274714
O                60.5165958238       15.3727041959        7.1807830290
C                59.2326040884       12.9291049633        6.2943519110
C                58.8460212203       11.4572114241        6.4660903933
C                58.3713353208       10.7612723035        5.0760804653
O                58.3800645412       11.4206148939        4.0023022910
O                57.9789803287        9.5751903298        5.1763667824
H                56.6542957042       13.8863450138        6.1268502031
H                58.7255471413       13.8389902763        8.1923580660
H                59.0614392509       13.1706524679        5.2287337767
H                60.3006908617       13.0475959082        6.4852922166
H                59.6668981967       10.8546352572        6.8458470327
H                57.9971583690       11.3277474979        7.1382788065
N                58.8166028583       16.4149480729        6.2006960712
C                59.7336151921       17.4353328242        5.6857003105
C                59.5140810418       18.8658784752        6.2104789696
O                60.4336873438       19.6714209253        6.2711080920
C                59.6668551751       17.4232042274        4.1603672913
C                60.4361266269       16.2199812570        3.6152972978
O                61.6124041605       16.0277089083        3.9046362808
N                59.7293514942       15.4274170146        2.7782210765
H                57.9276966803       16.3217481447        5.7259674298
H                60.7383110304       17.1361516117        6.0029828251
H                58.6380020616       17.4270762125        3.8207961919
H                60.1806666809       18.3127569153        3.7912258310
H                60.1392248591       14.5545566579        2.4874467299
H                58.7486055796       15.6264120171        2.6198563109
N                58.2293918791       19.0997297964        6.5108318067
C                57.6979160224       20.2346244586        7.2187113435
C                57.3812197067       19.9254920203        8.6821096810
O                58.1475544550       20.3417342238        9.5546051081
C                56.5291924374       20.7550425337        6.4235934271
C                57.1993408146       21.4854302721        5.2788233634
C                55.6666307467       21.6657373358        7.2431771094
C                56.3063776305       21.6721793215        4.0604081871
H                57.5641271647       18.3425296212        6.3888116263
H                58.5003016141       20.9824815025        7.2612807061
H                55.9474384244       19.9122710953        6.0459399344
H                57.5331071797       22.4651795009        5.6222479515
H                58.0737334683       20.9182236890        4.9490138760
H                54.9468348529       22.1727573782        6.6006266138
H                55.1001366743       21.1331721284        8.0006014055
H                56.2726335467       22.4260611001        7.7355298128
H                56.8677007463       22.1132170269        3.2417092434
H                55.9132841143       20.7104195363        3.7303549938
H                55.4607087425       22.3190046524        4.2823898405
N                56.2719950459       19.2552049846        8.9970592906
C                55.7952225648       19.2293105844       10.3781228745
C                56.7224737239       18.6288544767       11.3972989555
O                56.7359101085       18.9980063998       12.5640658238
C                54.5193116467       18.4160023780       10.4339905960
C                53.4201043043       19.2328751518        9.7159800055
C                54.1963686393       17.9828134939       11.8656832654
C                52.1723117764       18.4287611033        9.3233580216
H                55.7597057490       18.7689150070        8.2694763407
H                55.5973305016       20.2628289642       10.6891246563
H                54.6943252651       17.4969037628        9.8530991539
H                53.1260105993       20.0698064978       10.3511433472
H                53.8392572715       19.6431158027        8.7980883906
H                53.2031039029       17.5389191452       11.8953454664
H                54.9006956767       17.2344173662       12.2119758716
H                54.2160363557       18.8260300142       12.5493683969
H                51.5098193388       19.0531066739        8.7342981471
H                52.4583780760       17.5632822067        8.7344287577
H                51.6300316240       18.0882977682       10.1985236458
N                57.5050295136       17.6480581068       10.9704536518
C                58.4153855201       17.0650928259       11.9085279025
C                59.7607389110       17.7363310325       12.0082579845
O                60.4355008011       17.4249466863       12.9849569238
C                58.8022392187       15.6367000584       11.5793273711
C                57.6660449266       14.7229448655       11.9145574272
S                58.1697261137       12.9746725166       11.6183981933
C                58.8777844928       12.4865776555       13.2840499628
H                57.3652165304       17.1702461099       10.0763907292
H                57.9702936379       17.0967692152       12.9145628508
H                59.0327139771       15.5315331672       10.5170705134
H                59.6794691805       15.3558635097       12.1627577828
H                57.3662371196       14.8063995954       12.9590507394
H                56.8250325654       14.8843634763       11.2474771595
H                59.6756940674       11.7805905273       13.0780109488
H                59.2575411940       13.3710548438       13.7834445043
H                58.0890018958       12.0053442391       13.8621347562
N                60.1577502283       18.6421936274       11.0953557758
C                61.2065981385       19.4785718666       11.5786014276
C                60.5578900916       20.3987668378       12.5958405975
O                61.1869236916       20.8305455018       13.5665162129
C                61.7631918180       20.1701666138       10.3634485059
C                61.6377984852       19.0953867613        9.3178825884
C                60.2630800582       18.5267486938        9.6608679573
H                61.9754629522       18.8927795469       12.0984684390
H                61.1091549467       21.0022877715       10.0860650691
H                62.7908813123       20.5067874144       10.5108712542
H                61.6583995653       19.4668751233        8.2940395818
H                62.4072501648       18.3275152936        9.4300200555
H                59.5106307313       19.1226285066        9.1661122058
H                60.1514241050       17.4779673693        9.3322638639
N                59.3022582379       20.8353112837       12.3741822193
C                58.8364575892       21.9688310770       13.2411296467
C                58.9760515197       21.5470712707       14.6657661122
O                59.7260975811       22.1138380226       15.4461809563
C                57.4221753377       22.4606669494       12.9612275855
C                57.3444383224       22.8298272659       11.4772303682
C                55.8715772334       23.0512686940       11.1111778252
C                58.2944735399       23.9796435305       11.1597479415
H                58.7219527742       20.4746985308       11.6254579096
H                59.5770501076       22.7684072187       13.1212846517
H                56.7056766632       21.6738339067       13.1915320614
H                57.2193658233       23.3224591705       13.5937714620
H                57.6679311327       21.9585179161       10.8975464303
H                55.7629879723       23.2782580975       10.0529326545
H                55.2895565795       22.1658787415       11.3426668480
H                55.4591709459       23.8821248110       11.6813880051
H                58.4389285769       24.0490175814       10.0892694571
H                57.8490821680       24.9183472545       11.5021418818
H                59.2244955073       23.8582378655       11.6817332897
N                58.1988240815       20.5277490461       14.9712809963
C                58.1692286726       20.1048802499       16.3193665576
C                59.5184466241       19.7099837543       16.9367211254
O                59.5860684439       19.4503268736       18.1289039183
C                57.0916697874       19.0571343451       16.4266194928
C                55.7517148876       19.7100840949       16.1034056775
C                57.0974118687       18.4773503613       17.8193105486
C                54.7063302906       18.6412097846       15.7909647586
H                57.7267273501       19.9831297763       14.2579503354
H                57.8660978234       20.9658552906       16.9443188124
H                57.2967187151       18.2537025852       15.7074414121
H                55.4202140611       20.3036327408       16.9583062653
H                55.8354706608       20.3583777397       15.2329382112
H                56.2170694457       17.8557382241       17.9957947703
H                57.9647812899       17.8462781380       18.0034788529
H                57.1024830909       19.2676927519       18.5666936178
H                53.7368518388       19.0825203356       15.5641032766
H                55.0271822035       18.0526928014       14.9328888739
H                54.5781992984       17.9560105156       16.6252267964
N                60.6212955677       19.7409309285       16.1866746185
C                61.8882839437       19.4718658807       16.8010570321
C                62.8460622114       20.6635333361       16.7785436988
O                64.0152959091       20.5009488642       17.1376681028
H                60.6231501007       19.8693922753       15.1836608695
H                61.6969608832       19.2523665385       17.8552951755
H                62.3780613079       18.6099655651       16.3293649168
N                62.3259863703       21.8087977841       16.3021100153
C                62.9532992974       23.1093500066       16.4558743137
C                62.1955965914       23.9785120721       17.4388584304
O                62.8473814441       24.8348725169       18.0147042317
C                63.1922784201       23.8773248356       15.1494223230
C                64.1245537645       23.0411595099       14.2695822739
C                64.6627930814       23.8153120070       13.0720269330
C                65.2016578642       22.8854621028       11.9691846718
N                66.6905354256       22.6269546588       12.0259074783
H                61.4094336160       21.7673717113       15.8749592431
H                63.9266057853       22.9155980934       16.9292694001
H                62.2346518650       24.0444642237       14.6574975745
H                63.6411341019       24.8312329687       15.4203220895
H                64.9412267558       22.6768624991       14.8923115716
H                63.5553542072       22.1658944106       13.9466432179
H                63.8543364647       24.4240709393       12.6824859851
H                65.4427988887       24.4940608639       13.4144641514
H                64.7090600096       21.9145952956       12.0657632061
H                65.0201763387       23.2811939125       10.9672911800
H                66.9426549866       21.8788968396       11.3654747889
H                67.2383513057       23.4678717802       11.7875638651
H                66.9506734426       22.3137721174       12.9746756763
N                51.0325129029       11.9667818935       12.2580168483
C                50.5188953417       11.6414980883       10.9374067522
C                48.9850868807       11.8029999855       10.8745427317
O                48.4214264307       12.1339397532        9.8232919222
C                50.8723479434       10.1850226630       10.4807368848
C                50.7990665825       10.1222357364        8.9487419454
C                49.9090151882        9.1493628229       11.0452274347
C                50.5127796189        8.7381992522        8.3198912961
H                51.3491412772       11.1688688883       12.8050869229
H                50.9416166402       12.3508921790       10.2148834330
H                51.8850997661        9.9716841742       10.8325298217
H                49.9946040381       10.7899199910        8.6228849766
H                51.7329736178       10.5064873337        8.5288570140
H                50.3140935403        8.1579474773       10.8730732628
H                49.7883075390        9.3153996827       12.0918409631
H                48.9410595050        9.2261412468       10.5550086994
H                50.6458022238        8.8178688242        7.2437142465
H                51.2075565971        7.9930321939        8.6974544075
H                49.4930410097        8.4143990553        8.4988172984
N                47.4275834560       14.1249537112       12.9512507280
C                47.3843539268       15.5617266930       12.9470755077
C                47.6486863322       16.1594288903       11.5637665602
O                46.9414943222       17.0433393102       11.0739822672
C                48.4660307135       16.0959613243       13.8643862826
C                48.8877907856       17.4976795543       13.5045305266
C                48.2209436627       18.5895947644       14.0492342775
C                50.0132313169       17.7241876252       12.7196528570
C                48.7158804552       19.8749465548       13.9287105983
C                50.5042588757       19.0123685928       12.5883162745
C                49.8898150395       20.0774786521       13.2297576626
H                47.9871789565       13.6557538498       13.6541050108
H                46.3861267633       15.9029158339       13.2557161000
H                48.1252062664       16.0659205031       14.8999201529
H                49.3388231159       15.4467600071       13.7661539635
H                47.3224370928       18.4117482505       14.6232095158
H                50.5503390169       16.8890711739       12.2932104886
H                48.2118522371       20.6966164144       14.4091610999
H                51.4136161832       19.1846858302       12.0347068542
H                50.3380175741       21.0569376249       13.1755596904
N                48.7333241479       15.7228736549       10.9406133816
C                49.0688996088       16.3093029779        9.6607664624
C                47.9058113894       16.2351833353        8.6783150947
O                47.7820432210       17.1024426979        7.8232929153
C                50.2520317316       15.5772565741        9.0541316579
H                49.3562602531       15.0317333463       11.3447236596
H                49.3059860576       17.3737560381        9.8004065453
H                50.5500631679       16.0537818794        8.1292695984
H                51.0872475909       15.5850157133        9.7536057753
H                49.9760890683       14.5418066385        8.8530847285
N                45.7212790735       19.5515539089        9.6753468955
C                46.0867076110       20.8427359306        9.1144189241
C                46.1125508830       20.8466805583        7.5915911796
O                45.9612618616       21.8857373793        6.9647201723
C                47.3758193916       21.5612373370        9.6078609388
C                48.5129082108       21.6031298295        8.5792163159
C                47.7631659946       21.0068089848       10.9699060152
C                49.7149082800       22.3354181039        9.1195055363
H                46.4181645993       18.8956226848       10.0085211195
H                45.2437477967       21.4986899469        9.3747656978
H                47.0868976615       22.6082402142        9.7505453802
H                48.7992586189       20.5833194633        8.2859681764
H                48.1627133105       22.1184548726        7.6866670504
H                48.5095297602       21.6440689737       11.4300246873
H                46.8987906916       20.9657676407       11.6213774816
H                48.1863189521       20.0061243604       10.8854456657
H                50.4352021637       22.5127757709        8.3196225563
H                49.4227684505       23.3039774183        9.5182615935
H                50.2168832008       21.7721065037        9.9007728099
N                46.3506521935       19.7013915316        6.9615652897
C                46.2885256381       19.7310663232        5.5247938948
C                44.8393436393       19.9480313149        5.0835735508
O                44.6447058560       20.6553288932        4.0898958316
C                46.8792276621       18.4742229406        4.8754960523
C                46.5367105204       18.4390726680        3.3998877967
C                47.5259653989       18.5446681028        2.4292716409
C                45.2072892559       18.2706724929        3.0162896721
C                47.1773258748       18.5002886522        1.1008450256
C                44.8489852566       18.2959485463        1.6949111373
C                45.8393415912       18.3956157101        0.7440807096
H                46.5899714521       18.8261129048        7.4123427781
H                46.8292895992       20.6164486036        5.1647941946
H                47.9579937226       18.4646895445        5.0243244422
H                46.4550587228       17.5968786692        5.3737751864
H                48.5583633972       18.6546663510        2.7282240151
H                44.4663264514       18.0671150131        3.7775059548
H                47.9316437054       18.5520754705        0.3295542946
H                43.8148822168       18.2074710968        1.3969375976
H                45.5747434318       18.3920089524       -0.3062911118
N                62.9634989662       24.0340029638        6.4171556686
C                61.9712760677       23.1384490345        5.8829571166
C                62.2553625784       22.8347256694        4.4057672665
O                63.3399349663       22.9903329573        3.8839866569
C                60.5473014456       23.6722719045        6.1497260397
C                60.4688128927       24.5245440088        7.3911762849
C                60.8289877980       23.7092896473        8.6133383176
C                61.2202625547       24.6823120674        9.7061486378
N                61.6927447367       24.0299631471       10.9695562875
H                63.0330929681       24.9436227966        5.9816879258
H                62.1096470052       22.1781746853        6.3974022990
H                60.2142805137       24.2690133370        5.2951020317
H                59.8662229242       22.8271244846        6.2577122418
H                61.1381159916       25.3768592129        7.2844994363
H                59.4567173362       24.9215117991        7.4757473049
H                59.9821121045       23.0902767708        8.9101333441
H                61.6635624858       23.0447109884        8.3909116451
H                62.0263736305       25.3231687951        9.3432371206
H                60.3684377666       25.3224115624        9.9490686907
H                61.8151803719       24.7341157948       11.7117132454
H                61.0006079192       23.3285966251       11.2856954848
H                62.5704966545       23.5113817060       10.7966362544
N                61.1013522609       22.4753318285        3.7760695760
C                61.0336959672       21.9423653381        2.4350446922
C                59.7359742232       22.1163339222        1.5436067685
O                58.5851053161       21.8384410630        1.7934239022
C                61.4223605551       20.4639867906        2.5881352126
C                62.9163061195       20.2503432992        2.6390498282
C                63.5312176480       19.4588108466        3.6085859691
C                63.6848054407       20.7166050527        1.5802702713
C                64.8688259384       19.1097519715        3.5035772192
C                65.0247788135       20.3818487308        1.4799730159
C                65.6436295914       19.5674324165        2.4304082491
O                66.9834923713       19.2818147531        2.3304118317
H                60.3333802992       22.1884775703        4.3678155116
H                61.8321899415       22.4421973121        1.8858349257
H                60.9761126947       20.0932795356        3.5142177000
H                61.0249542409       19.8694360200        1.7622779468
H                62.9548566981       19.0826481202        4.4376959208
H                63.2538435867       21.3222919654        0.7935617322
H                65.3288264224       18.4817348243        4.2470074285
H                65.6097950468       20.7828267725        0.6574974782
H                67.3567338611       19.7630202376        1.5820253804
N                58.1743614840       18.8728722150       -0.1109950876
C                56.7059783324       18.8881528141       -0.0926736817
C                56.0876408516       19.1391198814       -1.4387254817
O                55.1668031032       18.4567529937       -1.8856122763
C                56.0937767485       20.0781390929        0.6986918649
C                54.5690027666       19.9582595174        0.7859953648
C                53.9276895345       18.8146239290        1.2661333813
C                53.7490944770       21.0286351381        0.4655711464
C                52.5470404642       18.7200139281        1.3240392735
C                52.3629792010       20.9197168154        0.5264306570
C                51.7356157478       19.7570796592        0.9169755955
H                58.5963651474       19.6044968581        0.4527545059
H                56.3403281911       17.9469331747        0.3239067766
H                56.5072978527       20.0680886907        1.7147996559
H                56.3590626804       21.0234204394        0.2353853414
H                54.5113153741       17.9545113276        1.5682762866
H                54.1875601788       21.9679763749        0.1511071309
H                52.1076089576       17.7740803075        1.6244185813
H                51.7729718420       21.7884737688        0.2603418604
H                50.6629971664       19.6828488895        0.9408207889
H                52.3066062898       12.0899603120       -0.7884324931
H                61.2170545203       23.8325825874       17.5843232046
H                51.7376750715       12.5202879857       12.1781587126
H                48.4312436054       11.6396546629       11.6909837473
H                46.5965775664       13.7997266614       13.0681120879
H                47.2506045855       15.4818680799        8.7350616385
H                45.1991948007       19.6748482751       10.3979993095
H                44.0921090446       19.5236397659        5.5949758130
H                62.7896907622       24.1910997117        7.2861270835
H                59.8082373781       22.5082551149        0.6264503940
H                58.4705956035       18.0848068596        0.2071217810
H                56.4233891633       19.8868221669       -2.0116254410
