 234 
 
N               -13.6431371062       74.6766664991       11.6479158724
C               -14.0266419292       73.3050140685       11.8554624846
C               -14.7889643110       73.1105924559       13.1808832240
O               -15.7888976066       72.4388984145       13.2621251370
C               -12.8523656941       72.3732255004       11.8198626383
O               -13.3454925494       71.2048715032       11.1899060063
H               -12.6610799035       74.8993958857       11.5407456831
H               -14.7057296553       72.9977093979       11.0578752346
H               -12.0283019551       72.8141593392       11.2291702395
H               -12.4624368376       72.1628950882       12.8304404089
H               -12.6890696942       70.4746330318       11.3127617625
N               -14.1881281434       73.6954798699       14.2060578364
C               -14.8842279503       74.0288021871       15.4242811021
C               -16.3572579192       74.3412522218       15.2789324930
O               -17.1922098281       73.4950383459       15.5710604894
C               -14.2370861980       75.1722026907       16.1991167270
H               -13.3636201314       74.2929433997       14.0305623794
H               -14.8709109850       73.1148360041       16.0668816727
H               -14.7790224832       75.3387314106       17.1292825580
H               -13.2039595397       74.8999910817       16.4556732378
H               -14.2134238197       76.0810291724       15.6319261819
N               -16.7265044213       75.5943926766       15.0248931869
C               -18.1251436058       75.8927171013       15.3840828295
C               -19.0790947599       74.9019610804       14.6817479849
O               -20.1228022178       74.5253402390       15.2096770047
C               -18.5129361645       77.3016402509       15.0318768169
H               -16.0878696517       76.3326100766       14.8184844522
H               -18.2584053853       75.7308986744       16.4524366051
H               -19.5475919936       77.4761050678       15.2835877322
H               -17.8824521564       78.0143167950       15.5564742973
H               -18.3852193110       77.4710568256       13.9475213493
N               -18.6694865362       74.5822439668       13.4244638786
C               -19.3353295376       73.6044877139       12.5626290642
C               -19.7341714424       72.3644801808       13.3493789885
O               -20.8798763656       72.0610719858       13.6651378525
C               -18.4009671886       73.2094729521       11.4088189465
H               -17.7366784451       74.8614364680       13.1372305275
H               -20.2696236896       74.0442250552       12.1931433736
H               -18.8434291532       72.3703852786       10.8737200399
H               -18.2987647000       74.0487207720       10.7254497394
H               -17.4311520505       72.9327285628       11.7826625324
N               -18.6513646838       71.5861202811       13.6383100092
C               -18.8672757885       70.3878127523       14.4026853664
C               -19.9046279918       70.5653185653       15.4957246588
O               -20.7479732207       69.6871460547       15.7029844602
C               -17.5059329524       70.0639218982       15.0641755183
H               -17.7208440398       71.8782838936       13.4910492298
H               -19.1769247397       69.5541794263       13.7534583218
H               -17.6366342956       69.2250742484       15.7743163555
H               -16.7781534312       69.7814852420       14.3328100326
H               -17.1663537929       70.9266628434       15.6250214445
N               -19.6683680038       71.6756800884       16.2204274523
C               -20.3381664735       72.0437544200       17.4042272171
C               -21.8223336614       72.2876139993       17.1681745884
O               -22.6898700614       72.0964244115       18.0336118306
C               -19.6851939521       73.2761118911       17.9957945212
C               -20.1670364396       73.4437969068       19.4470426249
C               -19.6869995524       74.7300330452       20.2691204078
O               -18.7270851557       75.4769155802       19.7506477888
O               -20.2935180837       74.8728268703       21.3728815407
H               -18.9140775858       72.2700148513       15.9111291583
H               -20.2770580856       71.2031176380       18.1384181156
H               -18.5968933422       73.1686805015       17.9903143979
H               -19.9516356920       74.1496692826       17.4210790522
H               -21.2464216183       73.4615254275       19.5024963579
H               -19.8199151055       72.6026375374       20.0615627438
N               -22.1096795452       72.7179166067       15.9256315596
C               -23.4760895604       72.9245565374       15.5408263271
C               -24.1167222094       71.6909544963       14.9248312929
O               -25.2211911480       71.3065580609       15.2176606712
C               -23.5264289183       74.0352457761       14.5316104019
C               -24.9348388410       74.1474367135       13.9449378275
C               -23.0863847982       75.2996564532       15.2406879613
H               -21.3922035716       72.9302410432       15.2888331690
H               -24.0665719431       73.1839071615       16.4334198449
H               -22.8225085107       73.8114211351       13.7287681112
H               -25.0099240453       75.0399548533       13.3095714795
H               -25.1746347318       73.2838568534       13.3496814966
H               -25.6724613078       74.2416389586       14.7413310112
H               -23.0511248544       76.1512842817       14.5302034201
H               -23.7899500879       75.5774686357       16.0245776874
H               -22.1056102161       75.1981582134       15.6694134405
N               -23.3710584116       71.0932513219       13.9851150444
C               -23.8748108304       69.8114452244       13.5358129905
C               -24.2893857939       69.0094763367       14.7621554875
O               -25.2768778870       68.3142741070       14.7687814635
C               -22.8633278118       69.0308220285       12.6975931333
C               -23.6343580185       67.9423334324       11.9255891953
C               -22.8169465537       67.1298123147       10.8044911714
O               -21.6137642060       66.8560496977       10.9831982482
O               -23.5058669486       66.7845469896        9.7907912914
H               -22.4266381706       71.3614092014       13.8061742347
H               -24.7774747248       69.9797324886       12.9336384147
H               -22.3860278321       69.7079909296       11.9740006421
H               -22.0864531146       68.5865135147       13.3064415571
H               -24.0364288782       67.2273038666       12.6235779966
H               -24.4689478787       68.3953499930       11.3793799442
N               -23.4533830025       69.1518165997       15.7774884648
C               -23.7080744443       68.5822442954       17.0644228904
C               -25.0242486782       69.0913640612       17.5993148709
O               -25.9169021261       68.2891727241       17.9226261929
C               -22.6122130768       68.8510970294       18.1270219963
C               -21.7853679617       67.5816515843       18.3730933115
C               -22.7350938779       66.3929139614       18.8874982787
O               -23.3615845131       66.6155233749       19.9579316491
O               -22.8008289745       65.3125609535       18.2106487492
H               -22.5299253105       69.5747019463       15.6489559919
H               -23.8289130029       67.4941425604       16.9676810583
H               -21.9775630269       69.6641707863       17.8081355280
H               -23.0861822694       69.1267461770       19.0761172717
H               -21.2828210490       67.2691414686       17.4660976260
H               -21.0507655151       67.7669084752       19.1598126058
N               -25.1943817028       70.4131292263       17.7470103640
C               -26.4223600645       70.7813916495       18.4798823233
C               -27.6055951228       70.0970378765       17.8015745628
O               -28.3869350414       69.4074344046       18.4213526936
C               -26.6061413343       72.2845681121       18.5888254633
C               -27.1737903857       72.6077278421       19.9517160595
C               -27.1406869497       74.1168163926       20.2037977830
N               -27.5703893089       74.4247211065       21.5667255857
C               -28.7549850402       74.9689831967       21.9889474005
N               -29.7033992189       75.3719213123       21.1312827013
N               -29.0231173896       75.0673895493       23.3069677191
H               -24.4092158866       71.0433066981       17.7568373767
H               -26.3552389140       70.3313695611       19.4825567372
H               -25.6147114955       72.7575733527       18.5072493385
H               -27.2295238338       72.6578583203       17.7881409459
H               -28.2031734435       72.2468119021       20.0326057554
H               -26.5893202128       72.1234676951       20.7311917204
H               -26.1209884958       74.4874358175       20.1214726179
H               -27.7626242303       74.6536910032       19.4908061880
H               -26.9733580021       74.0951227322       22.2895722550
H               -29.5838298959       75.2664989373       20.1324089307
H               -30.5010171419       75.8796806837       21.4448663394
H               -28.2801935508       74.9280126684       23.9748183511
H               -29.7711359748       75.6817763216       23.5732013122
N               -27.7228517715       70.3461776372       16.4879398909
C               -28.8570444888       69.8814343961       15.7316145612
C               -29.0329805352       68.3540087244       15.6980439746
O               -30.1342096298       67.8515848360       15.5659766421
C               -28.7781709650       70.4116285716       14.3051847690
O               -28.1794375481       71.6713482071       14.4117153421
C               -30.1796793844       70.4752295629       13.6943811309
H               -27.0027388542       70.8500684435       15.9856768414
H               -29.7674923248       70.2720712026       16.2046829892
H               -28.1312279695       69.7337193271       13.7076336460
H               -28.2493790107       72.1184085083       13.5399771424
H               -30.1139614612       70.7016137280       12.6229603902
H               -30.6821427962       69.5199111087       13.8074054075
H               -30.7528009686       71.2495740691       14.1790874803
N               -27.9307178273       67.6219049000       15.8013228481
C               -27.9834413444       66.1748708280       15.8966606634
C               -28.7266484076       65.6886124390       17.1221317688
O               -29.1197570361       64.5191494499       17.1601016224
C               -26.5621521096       65.6030769617       15.9915721675
C               -26.5479264301       64.0859029965       15.8191785711
C               -26.9349255610       63.7025840496       14.3819772620
N               -25.9367124529       62.8846272604       13.7361554908
C               -24.7558158674       63.4599949002       13.1900660890
N               -24.3806029472       64.6293305124       13.2989146198
N               -23.9360234260       62.5530685939       12.5041697344
H               -27.0166572543       68.0590528641       15.8746597347
H               -28.5145458761       65.7903600390       15.0102202606
H               -25.9554456546       66.1205526286       15.2510124012
H               -26.1593140755       65.8929382929       16.9624004231
H               -25.5387764594       63.7407222649       16.0147982753
H               -27.2383060170       63.6381686755       16.5106986044
H               -27.8521382499       63.1059324380       14.3671823271
H               -27.1128894599       64.5918932404       13.7707260410
H               -26.0575359635       61.9262047426       13.6638317487
H               -25.0103402801       65.3494799627       13.8133081036
H               -23.6305097950       65.0128973894       12.8094159086
H               -24.2538753384       61.5907161807       12.3328879436
H               -23.1606515168       62.8884389493       12.0624104277
N               -28.8223830962       66.5062642564       18.1659277426
C               -29.6569416252       66.0753993510       19.2577913527
C               -31.1054439992       66.3314068979       18.8464752218
O               -31.9628098749       65.4864931144       19.0371841117
C               -29.1928545830       66.6376095705       20.5916648683
C               -27.6980137928       66.3780640298       20.8123787028
C               -27.2367017182       64.9115081849       20.6992186070
C               -25.8581150271       64.8877438539       20.0707219376
N               -25.2987546296       63.5174488544       19.8514099720
H               -28.4619191857       67.4512427072       18.1600878877
H               -29.5926200669       64.9826808282       19.2906192869
H               -29.3658120745       67.7184248671       20.6131131778
H               -29.7830088715       66.1913428576       21.3859074013
H               -27.1443236625       66.9859247300       20.0887777158
H               -27.4408658634       66.7592607301       21.8009793394
H               -27.2196821264       64.4608901096       21.6811930781
H               -27.9132595985       64.3430868751       20.0631487708
H               -25.8809280663       65.3995289856       19.0988120731
H               -25.1442056927       65.4659302943       20.6770707230
H               -24.3682542488       63.6572670988       19.4060522161
H               -25.1779229562       63.0395187241       20.7495244725
H               -25.9057505369       62.9757248901       19.2362724023
N               -32.1389999965       65.6377873190       16.2166482185
C               -32.4112453871       64.2931596780       15.7738009296
C               -32.7816738529       63.3831605154       16.9453841196
O               -33.8928592168       62.8845579107       16.9841486979
C               -31.2366663423       63.6948754377       14.9983489364
C               -31.5811421485       62.2806533985       14.5105615504
C               -32.7017315337       62.3254401317       13.4584050116
O               -33.8636632042       62.5618823616       13.7257204712
N               -32.3488009891       62.1915227608       12.1737802078
H               -31.1933360415       66.0393962697       16.1064994064
H               -33.3011212213       64.3149606347       15.1354720843
H               -31.0221725587       64.3461689351       14.1288382009
H               -30.3519154003       63.6645220643       15.6266443869
H               -30.6931398993       61.8181692976       14.0676068054
H               -31.9238608347       61.6758943135       15.3265397785
H               -31.2834633533       61.8060181325       11.9969193881
H               -32.9117883950       62.0935849378       11.4736155752
N               -31.8430493073       63.1293877134       17.8766900859
C               -32.0699006292       62.0920359361       18.8867391588
C               -33.4196899904       62.3002479039       19.6312433693
O               -34.0334404997       61.3599632822       20.1309352175
C               -30.8218871351       61.7794800556       19.7758316318
C               -30.5779795396       62.5677806136       21.0819889448
C               -29.5907669475       61.9073061032       22.0815596918
O               -29.4627771098       60.7028856850       22.2477973093
N               -28.8265047026       62.7723573463       22.7905970476
H               -30.9191075121       63.5359217406       17.7880205485
H               -32.2541552905       61.1554510769       18.3305353625
H               -30.9201963021       60.7297238766       20.0690202118
H               -29.9523046821       61.8635928454       19.1294405849
H               -30.2531943481       63.5838046684       20.8690639593
H               -31.5324047505       62.6392355753       21.6213067076
H               -29.0873155488       63.7534779809       22.8603757745
H               -28.2981406592       62.4015256693       23.5382039378
H               -14.0285888930       74.9858601593       10.8957016739
H               -31.3573577870       67.1984244850       18.4165683165
H               -32.6707136911       66.2133494884       15.7739194797
H               -33.8094411445       63.2175553217       19.7127365537
