 99 
 
N                58.8857169556       96.5460106757       99.8937827709
C                59.4232811158       95.9778574019       98.6599506420
C                58.3031544137       95.2087403516       97.9269614070
O                57.6371945542       94.4271036607       98.4699236208
C                60.5289844202       95.0436452111       99.0576605097
C                60.9383706965       95.5433744672      100.4800173804
C                59.5869976624       96.0699186148      101.0355739343
H                59.8323641505       96.7722891671       98.0031591691
H                60.1655782898       94.0127819578       99.1778545358
H                61.3873033392       95.0924719895       98.4231366386
H                61.3607475183       94.7473207145      101.0263840532
H                61.6224547458       96.3814841073      100.3284437641
H                59.0662951673       95.1992900020      101.5114306293
H                59.7912949867       96.8112042379      101.7800742178
N                58.2221145648       95.4969969111       96.6168421971
C                57.2042754813       94.9529073145       95.7671508668
C                57.8140279246       94.3300137870       94.5621285236
O                57.8282375369       95.2267242261       93.4551845629
C                56.1243862885       96.0587196722       95.5306620347
S                54.9910640678       95.4037227359       94.1759490222
H                58.8597511080       96.1159983600       96.1340871409
H                56.6912024693       94.1218316833       96.3040073666
H                55.5209201233       96.1994859041       96.3952374693
H                56.5692630922       96.9234198996       95.1471651787
H                53.8904992673       95.8624397734       94.0405392759
N                58.2412453242       93.3898446751       94.6099705116
C                58.7224365875       92.7813686871       93.3982542692
C                58.9468596076       91.0401239770       93.3259528581
O                57.8149439002       90.9299437842       94.8932177367
C                60.4964213423       92.8851378116       93.1075343675
C                61.1655902329       93.0675676639       94.4399176009
C                62.5828346464       93.4377347732       94.1507097986
C                63.6192762427       93.1697426258       95.3136017845
N                64.9788990987       93.6029950397       94.8470686744
H                58.5058037422       92.7080979498       95.5077043316
H                58.3710577989       92.9727293906       92.5263612770
H                60.8134537931       92.1582806231       92.6353939476
H                60.4638278638       93.9053562228       92.7020429167
H                60.7141036245       93.7569286424       95.1445750185
H                61.1885201132       92.0539554035       94.9778936665
H                62.9253406562       92.8706305915       93.2752426643
H                62.6084849359       94.5040317807       93.9021033344
H                63.2515899426       93.7617795883       96.1239248469
H                63.5553317718       92.1118661942       95.5091730108
H                65.5914511108       93.3624234615       95.7001974861
H                65.2450919200       93.0497216017       94.0266545664
H                64.9765314189       94.5894645265       94.6728086803
N                59.0030784307       90.4566970447       92.4306255968
C                59.3239102343       88.8058179745       92.3360275383
C                60.5376536532       88.7967554908       93.2290428398
O                61.4468452150       89.4912247262       92.8979208245
C                59.2456599378       88.4064564616       91.1539645279
C                57.8036803509       88.6247020595       90.3185454329
O                57.8339138651       88.1287829093       89.3423486971
O                57.2380479408       89.6166569595       90.5389239625
H                59.1178126903       90.8980984083       91.5749277707
H                58.3847183109       88.5255496925       93.0928353567
H                60.0682673990       88.7256624216       90.5948131848
H                59.2989955323       87.3441497701       91.1867868948
N                60.5462964175       87.8695526433       94.1431888976
C                61.7116138521       87.4660950111       94.9465878663
C                62.1721173066       88.5701856392       95.9271662355
O                62.7402728734       89.5565238846       95.5186770522
C                62.9708672170       87.3033971601       93.9749337027
C                62.7937485679       85.6205056687       93.4532937912
C                64.1652201389       85.7052305501       92.4773309786
C                64.0807458056       84.1866641347       91.8678306870
N                65.5214741986       83.9308185493       91.2654968425
H                59.7072484011       87.2340863661       94.4057759856
H                61.5286511669       86.6584192229       95.4884732018
H                62.9432982401       87.9507180573       93.1478780770
H                63.8741437777       87.3871625610       94.5099211215
H                62.9880366401       85.0983529814       94.2059664289
H                61.9973249468       85.6892957440       92.8079928143
H                64.0675968985       86.3416987985       91.6875125748
H                65.0302063324       85.7477532385       93.0773168247
H                63.9184205091       83.4918216699       92.6562091028
H                63.3636231927       84.1592109017       91.0921884977
H                65.4482094102       82.9649484411       90.8612739167
H                65.6888848805       84.6322151540       90.5499007534
H                66.1912207545       83.9669668362       92.0258925610
N                61.7700093567       88.4166049969       97.1674692913
C                62.1235715900       89.1923646984       98.3114221254
C                63.0579079905       88.4332543279       99.2893313123
O                62.9588439042       87.2989630876       99.3772675900
C                60.9264487466       89.6899271350       99.0551536624
C                61.3073850619       90.6801196316       99.9177990627
C                59.9570068890       90.3412943588       98.2100045616
O                64.0627962987       89.0805111193       99.7457661008
H                61.2035243213       87.6918297775       97.4845661889
H                62.7896144553       90.2191597461       97.8642002404
H                60.5904681297       88.9943951218       99.5680272194
H                60.5087052639       91.1538303503      100.5443034650
H                62.1075558060       90.4093240675      100.6945641386
H                61.7875317915       91.6632710542       99.4377785557
H                59.0346302191       90.5951092061       98.6953502748
H                60.3061517784       91.0704533374       97.5046562899
H                59.5926808259       89.4326107655       97.4416102916
H                58.9714628296       97.4417069761       99.8743976597
