569
Properties=species:S:1:pos:R:3 pbc="F F F"
N      22.67800000      16.35000000      -8.76200000 
C      23.46300000      16.30100000      -7.55200000 
C      24.80200000      15.70900000      -7.87600000 
O      24.87800000      14.67500000      -8.56800000 
C      22.75600000      15.47300000      -6.47500000 
C      23.59300000      15.43500000      -5.20400000 
C      21.38700000      16.06300000      -6.17800000 
H      22.53300000      15.49200000      -9.23900000 
H      23.58300000      17.30800000      -7.19800000 
H      22.63800000      14.46900000      -6.86200000 
H      23.08300000      14.86100000      -4.44400000 
H      24.56500000      14.99600000      -5.36800000 
H      23.73400000      16.44000000      -4.82700000 
H      20.87500000      15.45100000      -5.45300000 
H      21.49600000      17.05700000      -5.76500000 
H      20.77800000      16.11800000      -7.06700000 
N      25.85900000      16.34800000      -7.40000000 
C      27.20500000      15.93200000      -7.64100000 
C      27.67900000      14.91700000      -6.62800000 
O      27.38100000      15.00500000      -5.41900000 
C      28.05400000      17.18300000      -7.46400000 
O      29.42400000      16.79300000      -7.27200000 
H      25.72000000      17.15700000      -6.81000000 
H      27.30700000      15.52900000      -8.63100000 
H      27.95700000      17.80500000      -8.33700000 
H      27.71500000      17.72000000      -6.59500000 
H      30.03800000      17.49700000      -7.46100000 
N      28.54100000      14.00800000      -7.05500000 
C      29.15200000      13.10700000      -6.11900000 
C      29.94300000      13.81900000      -5.06000000 
O      30.13900000      13.26600000      -3.95900000 
H      28.74200000      13.91700000      -8.02900000 
H      28.41600000      12.50700000      -5.61600000 
H      29.82600000      12.46600000      -6.66400000 
N      30.44600000      15.01500000      -5.33400000 
C      31.27300000      15.70300000      -4.36700000 
C      30.42800000      16.13100000      -3.20700000 
O      30.79400000      15.95900000      -2.03200000 
C      31.89600000      16.93000000      -5.02900000 
C      32.71000000      17.79400000      -4.08300000 
C      34.10500000      17.26800000      -3.84600000 
O      34.69700000      16.74100000      -4.84400000 
O      34.60500000      17.42800000      -2.69500000 
H      30.18900000      15.49000000      -6.17500000 
H      32.02600000      15.03800000      -3.98500000 
H      32.53800000      16.59800000      -5.82500000 
H      31.09700000      17.51600000      -5.45300000 
H      32.82400000      18.77400000      -4.52900000 
H      32.22000000      17.93200000      -3.13300000 
N      29.27800000      16.74100000      -3.49100000 
C      28.44800000      17.21900000      -2.41400000 
C      27.77700000      16.06800000      -1.71000000 
O      27.49900000      16.15900000      -0.50200000 
C      27.45600000      18.26500000      -2.88900000 
C      26.42300000      17.72100000      -3.85000000 
C      25.75200000      18.84200000      -4.60200000 
O      25.44300000      19.88100000      -3.96000000 
O      25.55100000      18.67200000      -5.85000000 
H      28.97300000      16.82400000      -4.43200000 
H      29.08600000      17.66200000      -1.67200000 
H      26.96900000      18.68700000      -2.02600000 
H      28.02900000      19.05300000      -3.35600000 
H      26.85300000      17.03900000      -4.55900000 
H      25.66500000      17.17300000      -3.30800000 
N      27.50800000      14.96800000      -2.40000000 
C      26.95900000      13.81300000      -1.75200000 
C      27.98100000      13.19800000      -0.84400000 
O      27.66900000      12.80000000       0.30400000 
C      26.49700000      12.82000000      -2.80600000 
C      25.88100000      11.60000000      -2.20600000 
C      24.56800000      11.63900000      -1.76300000 
C      26.61800000      10.43400000      -2.06400000 
C      23.98900000      10.52500000      -1.17400000 
C      26.02200000       9.30100000      -1.54400000 
C      24.71100000       9.34600000      -1.08800000 
H      27.64400000      14.94700000      -3.39100000 
H      26.13200000      14.09700000      -1.12700000 
H      25.78000000      13.33300000      -3.42700000 
H      27.33900000      12.55300000      -3.42700000 
H      24.00200000      12.54200000      -1.87700000 
H      27.63600000      10.40800000      -2.40000000 
H      22.98400000      10.57100000      -0.81100000 
H      26.57100000       8.38400000      -1.48900000 
H      24.25300000       8.47000000      -0.67700000 
N      29.22100000      13.09900000      -1.28300000 
C      30.25000000      12.60700000      -0.38900000 
C      30.32300000      13.49800000       0.83000000 
O      30.43000000      13.02100000       1.97500000 
C      31.57600000      12.59700000      -1.14100000 
C      32.77900000      12.59300000      -0.25100000 
C      33.26600000      11.42000000       0.30800000 
C      33.41700000      13.78800000       0.04700000 
C      34.37900000      11.42900000       1.13000000 
C      34.52800000      13.81700000       0.87500000 
C      35.01700000      12.62900000       1.38400000 
O      36.15800000      12.58800000       2.15300000 
H      29.47000000      13.33200000      -2.22500000 
H      30.00000000      11.62600000      -0.02900000 
H      31.57800000      11.73700000      -1.79500000 
H      31.60600000      13.48000000      -1.76000000 
H      32.77400000      10.49100000       0.09300000 
H      33.04600000      14.70300000      -0.37500000 
H      34.76900000      10.52800000       1.55200000 
H      35.01600000      14.74500000       1.10500000 
H      36.57300000      13.43800000       2.26100000 
N      30.28100000      14.80500000       0.60600000 
C      30.40500000      15.74900000       1.68400000 
C      29.29500000      15.53800000       2.68300000 
O      29.51600000      15.49000000       3.90800000 
C      30.36800000      17.17600000       1.13100000 
C      31.38400000      18.03200000       1.84500000 
S      31.07800000      19.85300000       1.61000000 
C      30.60700000      19.93300000      -0.17600000 
H      30.27800000      15.14900000      -0.33300000 
H      31.32700000      15.57500000       2.21200000 
H      30.58800000      17.14400000       0.08000000 
H      29.37600000      17.58400000       1.24100000 
H      31.32200000      17.89300000       2.90900000 
H      32.38600000      17.80400000       1.53600000 
H      30.41700000      20.96900000      -0.39300000 
H      31.41800000      19.57100000      -0.78200000 
H      29.71700000      19.35500000      -0.34100000 
N      28.06800000      15.40600000       2.19200000 
C      26.95900000      15.21800000       3.09000000 
C      27.13100000      13.91100000       3.82100000 
O      26.90200000      13.82700000       5.04400000 
C      25.63800000      15.26100000       2.33500000 
C      24.44000000      15.19400000       3.27700000 
C      24.36200000      16.43400000       4.15500000 
C      23.15400000      15.03000000       2.48700000 
H      27.89800000      15.50500000       1.21100000 
H      26.98100000      15.98100000       3.84500000 
H      25.60000000      16.18400000       1.77300000 
H      25.60900000      14.44300000       1.62800000 
H      24.55300000      14.32600000       3.91800000 
H      23.45100000      16.42700000       4.73600000 
H      25.19200000      16.50300000       4.84200000 
H      24.35800000      17.32300000       3.53600000 
H      22.30400000      14.95100000       3.15400000 
H      22.99800000      15.88900000       1.84600000 
H      23.18700000      14.14600000       1.86500000 
N      27.54300000      12.88000000       3.09900000 
C      27.80000000      11.59500000       3.69800000 
C      28.70200000      11.73000000       4.89300000 
O      28.46600000      11.07400000       5.92200000 
C      28.42400000      10.63500000       2.68500000 
O      27.46100000      10.30900000       1.67300000 
C      28.79400000       9.33000000       3.33000000 
H      27.72300000      13.00500000       2.12500000 
H      26.88700000      11.15800000       4.06400000 
H      29.27700000      11.11200000       2.23900000 
H      27.36800000      11.01800000       1.03500000 
H      29.09900000       8.63500000       2.56100000 
H      29.60400000       9.44800000       4.03400000 
H      27.93900000       8.92300000       3.85100000 
N      29.75900000      12.53300000       4.81500000 
C      30.66000000      12.61800000       5.92900000 
C      29.97400000      13.22600000       7.13200000 
O      30.22100000      12.83100000       8.29000000 
C      31.86700000      13.47100000       5.61900000 
C      32.65600000      13.03200000       4.39800000 
C      34.13100000      13.04500000       4.70100000 
N      34.41400000      11.80800000       5.42800000 
C      35.53900000      11.52000000       6.06000000 
N      36.43600000      12.46500000       6.29600000 
N      35.74900000      10.26700000       6.45000000 
H      29.95500000      13.02300000       3.96500000 
H      30.97000000      11.62700000       6.22000000 
H      31.54200000      14.49200000       5.48800000 
H      32.50000000      13.44000000       6.49300000 
H      32.36400000      12.03900000       4.08300000 
H      32.44600000      13.68300000       3.56600000 
H      34.72700000      13.07400000       3.81100000 
H      34.37700000      13.89600000       5.31100000 
H      33.75400000      11.07300000       5.31900000 
H      36.19100000      13.44200000       6.25800000 
H      37.30000000      12.22700000       6.72400000 
H      35.13700000       9.53600000       6.17300000 
H      36.55200000      10.02800000       6.98200000 
N      29.13800000      14.23300000       6.91400000 
C      28.46400000      14.83700000       8.04400000 
C      27.62700000      13.77900000       8.72200000 
O      27.59700000      13.70200000       9.96800000 
C      27.64800000      16.05200000       7.61200000 
C      28.57600000      17.17800000       7.13500000 
C      27.83600000      18.24100000       6.35900000 
N      26.74200000      18.78000000       7.15500000 
C      25.75800000      19.48900000       6.63200000 
N      25.65500000      19.62000000       5.31600000 
N      24.86000000      20.06700000       7.42100000 
H      28.90700000      14.51000000       5.98400000 
H      29.19600000      15.14000000       8.77100000 
H      26.98000000      15.76100000       6.81500000 
H      27.05500000      16.38800000       8.44600000 
H      29.06600000      17.61400000       7.99300000 
H      29.33900000      16.77400000       6.48700000 
H      28.50700000      19.03400000       6.05700000 
H      27.42500000      17.79100000       5.46900000 
H      26.78000000      18.68700000       8.16000000 
H      26.37900000      19.34400000       4.68100000 
H      24.91400000      20.16200000       4.94100000 
H      24.97400000      20.07200000       8.42400000 
H      24.09200000      20.55700000       7.02800000 
N      26.95100000      12.93500000       7.95800000 
C      26.17300000      11.87000000       8.56000000 
C      27.06800000      10.94600000       9.35300000 
O      26.66100000      10.46600000      10.43000000 
C      25.36700000      11.13900000       7.48600000 
C      24.68100000       9.89500000       8.03700000 
C      24.33400000      12.09400000       6.92900000 
H      26.99200000      13.01700000       6.96200000 
H      25.49300000      12.28800000       9.28100000 
H      26.05700000      10.84800000       6.70600000 
H      24.09300000       9.44000000       7.25300000 
H      25.38900000       9.16400000       8.39800000 
H      24.01900000      10.16300000       8.84900000 
H      23.73800000      11.60100000       6.17500000 
H      23.67100000      12.41900000       7.72100000 
H      24.78900000      12.96800000       6.48500000 
N      28.27700000      10.67600000       8.86800000 
C      29.18600000       9.81900000       9.59300000 
C      29.58100000      10.42600000      10.92300000 
O      29.66000000       9.73200000      11.95800000 
C      30.43600000       9.58400000       8.77100000 
C      31.46300000       8.71900000       9.49300000 
C      30.86700000       7.41300000      10.01300000 
C      32.62400000       8.43400000       8.55500000 
H      28.54800000      11.03500000       7.97700000 
H      28.69300000       8.89200000       9.82100000 
H      30.13800000       9.09200000       7.85400000 
H      30.87000000      10.53700000       8.51400000 
H      31.84400000       9.27700000      10.33900000 
H      31.65300000       6.79000000      10.42000000 
H      30.13600000       7.58500000      10.78500000 
H      30.39500000       6.87500000       9.19900000 
H      33.39300000       7.86600000       9.06100000 
H      32.28200000       7.86400000       7.69900000 
H      33.06300000       9.35800000       8.19400000 
N      29.88700000      11.71200000      10.93700000 
C      30.27000000      12.36700000      12.16300000 
C      29.10900000      12.32300000      13.12800000 
O      29.31000000      12.15400000      14.34800000 
C      30.67200000      13.80000000      11.84100000 
C      31.24200000      14.54900000      13.02100000 
C      32.51800000      13.93900000      13.51400000 
O      33.18500000      13.18000000      12.78000000 
N      32.92100000      14.24900000      14.73600000 
H      29.85300000      12.23500000      10.08400000 
H      31.08100000      11.83700000      12.62800000 
H      31.41300000      13.75200000      11.05900000 
H      29.81400000      14.32900000      11.45900000 
H      31.45900000      15.56800000      12.72900000 
H      30.53900000      14.60100000      13.83800000 
H      32.47900000      14.96200000      15.28000000 
H      33.78500000      13.88000000      15.06100000 
O      27.54300000      19.41500000       3.22200000 
H      28.48200000      19.46200000       3.06200000 
H      27.06000000      19.60100000       2.42200000 
O      35.97400000      15.19600000       6.65500000 
H      36.89900000      15.41400000       6.70100000 
H      35.53100000      15.79400000       6.03000000 
O      35.64400000      15.00500000      -6.65500000 
H      34.99200000      14.31300000      -6.70100000 
H      35.34700000      15.68800000      -6.03000000 
N      32.27300000      15.41800000      -8.65700000 
C      32.86400000      14.08200000      -9.01700000 
C      31.79300000      13.03600000      -9.23900000 
O      31.47700000      12.26700000      -8.31800000 
H      32.72200000      15.79500000      -7.84100000 
H      32.38700000      16.07800000      -9.40800000 
H      31.28400000      15.36800000      -8.45300000 
H      33.46600000      14.22000000      -9.89400000 
H      33.46700000      13.76500000      -8.19200000 
N      31.25200000      12.99600000     -10.44600000 
C      30.31900000      11.98100000     -10.82200000 
C      28.88900000      12.26600000     -10.44900000 
O      28.53700000      13.32500000      -9.90500000 
H      31.60100000      13.56700000     -11.19300000 
H      30.36200000      11.87100000     -11.89400000 
H      30.59600000      11.03800000     -10.37700000 
N      25.08400000      10.74700000      -8.76200000 
C      24.64900000      10.09100000      -7.55200000 
C      23.46700000       9.22800000      -7.87600000 
O      22.53300000       9.67900000      -8.56800000 
C      24.28500000      11.11800000      -6.47500000 
C      23.83400000      10.41200000      -5.20400000 
C      25.48100000      12.00800000      -6.17800000 
H      24.41300000      11.30100000      -9.23900000 
H      25.46100000       9.48400000      -7.19800000 
H      23.47500000      11.72200000      -6.86200000 
H      23.59200000      11.14000000      -4.44400000 
H      22.96800000       9.78900000      -5.36800000 
H      24.63400000       9.78800000      -4.82700000 
H      25.20700000      12.75800000      -5.45300000 
H      26.28700000      11.41700000      -5.76500000 
H      25.83300000      12.50800000      -7.06700000 
N      22.12300000       4.83600000      -3.49100000 
C      22.95200000       5.31500000      -2.41400000 
C      22.29100000       6.47200000      -1.71000000 
O      22.50900000       6.66700000      -0.50200000 
C      24.35300000       5.65200000      -2.88900000 
C      24.39900000       6.81800000      -3.85000000 
C      25.70500000       6.83800000      -4.60200000 
O      26.76000000       6.58700000      -3.96000000 
O      25.65800000       7.09700000      -5.85000000 
H      22.34700000       5.05800000      -4.43200000 
H      23.01600000       4.54100000      -1.67200000 
H      24.96200000       5.86200000      -2.02600000 
H      24.75000000       4.76100000      -3.35600000 
H      23.59400000       6.78700000      -4.55900000 
H      24.30300000       7.74900000      -3.30800000 
N      21.47200000       7.25400000      -2.40000000 
C      20.74600000       8.30800000      -1.75200000 
C      19.70200000       7.73000000      -0.84400000 
O      19.51400000       8.19900000       0.30400000 
C      20.11700000       9.20500000      -2.80600000 
C      19.36900000      10.34800000      -2.20600000 
C      20.05900000      11.46600000      -1.76300000 
C      17.99100000      10.29200000      -2.06400000 
C      19.38400000      12.52400000      -1.17400000 
C      17.30800000      11.37600000      -1.54400000 
C      18.00200000      12.48800000      -1.08800000 
H      21.38700000       7.14800000      -3.39100000 
H      21.40600000       8.88200000      -1.12700000 
H      20.92100000       9.56900000      -3.42700000 
H      19.46500000       8.60900000      -3.42700000 
H      21.12500000      11.50400000      -1.87700000 
H      17.45900000       9.42400000      -2.40000000 
H      19.92600000      13.37100000      -0.81100000 
H      16.23900000      11.35800000      -1.48900000 
H      17.47200000      13.32200000      -0.67700000 
N      21.57100000       6.55100000       2.19200000 
C      21.96300000       7.60600000       3.09000000 
C      20.74600000       8.11000000       3.82100000 
O      20.78700000       8.35000000       5.04400000 
C      22.66100000       8.72700000       2.33500000 
C      23.20200000       9.79900000       3.27700000 
C      24.31400000       9.24700000       4.15500000 
C      23.70300000      10.99400000       2.48700000 
H      21.74200000       6.64900000       1.21100000 
H      22.61300000       7.20500000       3.84500000 
H      23.47900000       8.29900000       1.77300000 
H      21.96700000       9.16200000       1.62800000 
H      22.39400000      10.13500000       3.91800000 
H      24.76400000      10.03900000       4.73600000 
H      23.96000000       8.49300000       4.84200000 
H      25.08700000       8.80500000       3.53600000 
H      24.05900000      11.77000000       3.15400000 
H      24.52500000      10.70000000       1.84600000 
H      22.92100000      11.40800000       1.86500000 
N      20.02100000       6.21100000       6.91400000 
C      20.88100000       6.49200000       8.04400000 
C      20.38300000       7.74600000       8.72200000 
O      20.33100000       7.81100000       9.96800000 
C      22.34100000       6.59200000       7.61200000 
C      22.85200000       5.22500000       7.13500000 
C      24.14300000       5.33400000       6.35900000 
N      25.15600000       6.01300000       7.15500000 
C      26.26200000       6.51000000       6.63200000 
N      26.42700000       6.53400000       5.31600000 
N      27.21200000       6.99900000       7.42100000 
H      20.37600000       6.27300000       5.98400000 
H      20.77700000       5.70700000       8.77100000 
H      22.42300000       7.31600000       6.81500000 
H      22.92800000       6.93700000       8.44600000 
H      22.98500000       4.58200000       7.99300000 
H      22.12100000       4.76600000       6.48700000 
H      24.49400000       4.35700000       6.05700000 
H      23.95900000       5.91500000       5.46900000 
H      25.05700000       6.02600000       8.16000000 
H      25.82700000       6.04500000       4.68100000 
H      27.26700000       6.90500000       4.94100000 
H      27.15900000       6.89700000       8.42400000 
H      28.02000000       7.41900000       7.02800000 
N      17.81000000      16.33900000      -2.40000000 
C      19.08500000      16.44100000      -1.75200000 
C      19.10700000      17.63400000      -0.84400000 
O      19.60700000      17.56200000       0.30400000 
C      20.17600000      16.53700000      -2.80600000 
C      21.54000000      16.61300000      -2.20600000 
C      22.16400000      15.45700000      -1.76300000 
C      22.18200000      17.83500000      -2.06400000 
C      23.41700000      15.51200000      -1.17400000 
C      23.46100000      17.88500000      -1.54400000 
C      24.07800000      16.72700000      -1.08800000 
H      17.76000000      16.46600000      -3.39100000 
H      19.25200000      15.58200000      -1.12700000 
H      20.09000000      15.65900000      -3.42700000 
H      19.98600000      17.39900000      -3.42700000 
H      21.66400000      14.51500000      -1.87700000 
H      21.69600000      18.72900000      -2.40000000 
H      23.88000000      14.62000000      -0.81100000 
H      23.98000000      18.81900000      -1.48900000 
H      25.06500000      16.76900000      -0.67700000 
N      17.15100000      16.60500000       2.19200000 
C      17.86900000      15.73800000       3.09000000 
C      18.91400000      16.54000000       3.82100000 
O      19.10100000      16.38500000       5.04400000 
C      18.49100000      14.57300000       2.33500000 
C      19.14800000      13.56900000       3.27700000 
C      18.11400000      12.88100000       4.15500000 
C      19.93400000      12.53700000       2.48700000 
H      17.15000000      16.40800000       1.21100000 
H      17.19600000      15.37600000       3.84500000 
H      17.71100000      14.07800000       1.77300000 
H      19.21400000      14.95600000       1.62800000 
H      19.84400000      14.10000000       3.91800000 
H      18.57500000      12.09600000       4.73600000 
H      17.63900000      13.56500000       4.84200000 
H      17.34600000      12.43300000       3.53600000 
H      20.42700000      11.84100000       3.15400000 
H      19.26800000      11.97200000       1.84600000 
H      20.68300000      13.00800000       1.86500000 
N      19.60100000      17.41300000       3.09900000 
C      20.58500000      18.27800000       3.69800000 
C      20.01700000      18.99200000       4.89300000 
O      20.70400000      19.11500000       5.92200000 
C      21.10500000      19.29900000       2.68500000 
O      21.86800000      18.62800000       1.67300000 
C      22.05000000      20.27200000       3.33000000 
H      19.40300000      17.50600000       2.12500000 
H      21.42100000      17.70600000       4.06400000 
H      20.26500000      19.79900000       2.23900000 
H      21.30100000      18.19200000       1.03500000 
H      22.49900000      20.88200000       2.56100000 
H      21.54300000      20.91400000       4.03400000 
H      22.83000000      19.73400000       3.85100000 
N      19.85000000      16.87300000       7.95800000 
C      21.16100000      16.73200000       8.56000000 
C      21.51400000      17.96900000       9.35300000 
O      22.13200000      17.85600000      10.43000000 
C      22.19700000      16.39800000       7.48600000 
C      23.61700000      16.42700000       8.03700000 
C      21.88600000      15.02700000       6.92900000 
H      19.75800000      16.86700000       6.96200000 
H      21.13900000      15.93300000       9.28100000 
H      22.10400000      17.14200000       6.70600000 
H      24.30500000      16.14500000       7.25300000 
H      23.89600000      17.40500000       8.39800000 
H      23.71600000      15.72000000       8.84900000 
H      22.61100000      14.75700000       6.17500000 
H      21.93600000      14.29000000       7.72100000 
H      20.90200000      14.98400000       6.48500000 
N      38.56400000      19.70200000       5.33400000 
C      37.55400000      19.33000000       4.36700000 
C      37.60600000      20.27500000       3.20700000 
O      37.57200000      19.87200000       2.03200000 
C      36.18100000      19.40400000       5.02900000 
C      35.02500000      19.13100000       4.08300000 
C      34.78300000      17.66000000       3.84600000 
O      34.94400000      16.88300000       4.84400000 
O      34.39500000      17.30700000       2.69500000 
H      38.28200000      20.16200000       6.17500000 
H      37.75400000      18.34600000       3.98500000 
H      36.14700000      18.68200000       5.82500000 
H      36.07300000      20.38900000       5.45300000 
H      34.12000000      19.52200000       4.52900000 
H      35.15100000      19.62400000       3.13300000 
N      40.83600000      19.80500000       1.28300000 
C      40.74700000      18.66800000       0.38900000 
C      39.93900000      19.05000000      -0.83000000 
O      40.29900000      18.71900000      -1.97500000 
C      40.09400000      17.51500000       1.14100000 
C      39.49500000      16.47000000       0.25100000 
C      40.26800000      15.46200000      -0.30800000 
C      38.14100000      16.51500000      -0.04700000 
C      39.70300000      14.50300000      -1.13000000 
C      37.56000000      15.56800000      -0.87500000 
C      38.34500000      14.55000000      -1.38400000 
O      37.81000000      13.54200000      -2.15300000 
H      40.51000000      19.70600000       2.22500000 
H      41.72200000      18.39400000       0.02900000 
H      40.83700000      17.08300000       1.79500000 
H      39.31400000      17.93000000       1.76000000 
H      41.31800000      15.42400000      -0.09300000 
H      37.53400000      17.29400000       0.37500000 
H      40.28900000      13.71500000      -1.55200000 
H      36.51300000      15.61000000      -1.10500000 
H      36.86700000      13.60800000      -2.26100000 
N      38.82900000      19.73900000      -0.60600000 
C      37.94900000      20.10500000      -1.68400000 
C      38.68600000      20.96100000      -2.68300000 
O      38.61800000      20.74500000      -3.90800000 
C      36.73200000      20.85000000      -1.13100000 
C      35.48300000      20.39800000      -1.84500000 
S      34.05800000      21.57400000      -1.61000000 
C      34.22400000      22.02100000       0.17600000 
H      38.53200000      19.91400000       0.33300000 
H      37.63800000      19.21900000      -2.21200000 
H      36.65000000      20.64300000      -0.08000000 
H      36.87400000      21.91300000      -1.24100000 
H      35.63300000      20.38200000      -2.90900000 
H      35.17800000      19.41600000      -1.53600000 
H      33.42200000      22.70400000       0.39300000 
H      34.13200000      21.13800000       0.78200000 
H      35.17000000      22.50300000       0.34100000 
N      41.05700000      19.05600000      -4.81500000 
C      40.53300000      18.31800000      -5.92900000 
C      40.34900000      19.21700000      -7.13200000 
O      40.56800000      18.80500000      -8.29000000 
C      39.19100000      17.70000000      -5.61900000 
C      39.17600000      16.79700000      -4.39800000 
C      38.42800000      15.52600000      -4.70100000 
N      39.35800000      14.66200000      -5.42800000 
C      39.04400000      13.54400000      -6.06000000 
N      37.77700000      13.23900000      -6.29600000 
N      40.02400000      12.73500000      -6.45000000 
H      40.53500000      19.13100000      -3.96500000 
H      41.23600000      17.55400000      -6.22000000 
H      38.46900000      18.49200000      -5.48800000 
H      38.90000000      17.13600000      -6.49300000 
H      40.18200000      16.55300000      -4.08300000 
H      38.71800000      17.30400000      -3.56600000 
H      38.10500000      15.02400000      -3.81100000 
H      37.56800000      15.73800000      -5.31100000 
H      40.32300000      14.86600000      -5.31900000 
H      37.05400000      13.94000000      -6.25800000 
H      37.55200000      12.37200000      -6.72400000 
H      40.96300000      12.90000000      -6.17300000 
H      39.83000000      11.92000000      -6.98200000 
N      31.28400000      15.20800000     -14.63000000 
C      30.06600000      14.47300000     -14.83200000 
C      30.28800000      13.33100000     -15.80300000 
O      31.44500000      12.95200000     -16.07100000 
C      28.98300000      15.41200000     -15.36200000 
C      28.66800000      16.56800000     -14.48200000 
C      29.18300000      17.81900000     -14.59100000 
C      27.75600000      16.59400000     -13.35700000 
N      28.64500000      18.63600000     -13.61200000 
C      27.78900000      17.89600000     -12.82400000 
C      26.92500000      15.64000000     -12.77400000 
C      27.06600000      18.24100000     -11.68800000 
C      26.19500000      15.98000000     -11.65200000 
C      26.27700000      17.26800000     -11.10900000 
O      29.22500000      12.81100000     -16.29400000 
H      31.51700000      15.88600000     -15.32500000 
H      29.75800000      14.04700000     -13.89000000 
H      29.31900000      15.78200000     -16.31700000 
H      28.09400000      14.83200000     -15.53900000 
H      29.89000000      18.19400000     -15.29200000 
H      28.90600000      19.57800000     -13.45300000 
H      26.83700000      14.67100000     -13.20800000 
H      27.11400000      19.23100000     -11.27900000 
H      25.55000000      15.26200000     -11.19300000 
H      25.70300000      17.50600000     -10.23600000 
H      21.85588400      16.66443143      -8.57422844 
H      28.17380605      12.42953822      12.79026951 
H      31.23691875      15.65979327     -13.85304041 
H      28.17833813      11.58839986     -10.63825577 
H      25.76681940      11.30230414      -8.57386444 
H      23.42621265       8.28811632      -7.53694976 
H      22.10716078       3.93619956      -3.48059382 
H      19.14352326       6.95936791      -1.15096891 
H      21.99871115       5.79145192       2.41594170 
H      19.88997078       8.25649304       3.32526442 
H      19.71576976       5.36629382       6.97149762 
H      20.09279570       8.52973508       8.17287270 
H      17.46622480      15.51922773      -2.25931585 
H      18.71935125      18.50319600      -1.15096378 
H      16.27941439      16.61436442       2.41616698 
H      19.09011508      19.36572978       4.85820931 
H      19.31989266      16.19894635       8.23119935 
H      21.25203131      18.87232640       9.01333279 
H      38.99758244      18.96480222       5.61426006 
H      37.66989958      21.26004187       3.36702923 
H      41.69653514      20.05511205       1.36620603 
H      39.24798548      21.72575475      -2.36784529 
H      41.83773678      18.69214990      -4.55411079 
H      40.04620942      20.16200156      -7.00834760 
