 429 
 
N                54.6875208498       15.6332732568        6.1883432338
C                55.0777700407       15.3553480303        7.5514485453
C                56.5864146679       15.1980098943        7.7107365241
O                57.1685071257       15.6636005495        8.6905969626
C                54.3393655114       14.1697947786        8.2113706906
C                52.8915048758       14.1394925690        7.7414566499
C                54.9988844266       12.8155176958        7.9802774133
H                54.1785114607       14.9552841645        5.6425273640
H                54.8078862598       16.2604054056        8.1098501161
H                54.3591148455       14.3757229336        9.2882352414
H                52.2851722514       13.5417558880        8.4151114806
H                52.4881849791       15.1440693825        7.6930425354
H                52.8162077408       13.7151346320        6.7447671527
H                54.3525997469       12.0304363949        8.3638936492
H                55.1481925499       12.6469009748        6.9171366706
H                55.9634862493       12.7520982273        8.4784823453
N                57.2033119927       14.4805086835        6.7830573070
C                58.6038218537       14.1528595452        6.8697916249
C                59.4760335448       15.3962998610        6.7495818995
O                60.5187006402       15.5322639476        7.3737485242
C                58.9813031398       13.1878758659        5.7411230861
C                58.3018759941       11.8314317040        5.8653414982
C                58.0445905026       11.1129228635        4.5044545709
O                58.1180429990       11.7644245189        3.4375854220
O                57.7379122854        9.9085310934        4.5850598695
H                56.6986868587       14.1645785279        5.9655594635
H                58.8030775588       13.6911832623        7.8484100410
H                58.6772793693       13.6369769514        4.7900751167
H                60.0674494353       13.0771460844        5.7233725412
H                58.8556727404       11.1541381058        6.5166976093
H                57.3039081967       11.9525593016        6.2917770511
N                58.3062211492       18.8988115285        6.4905865070
C                57.8789495114       20.1630868740        7.0469260946
C                57.4685961835       19.9577709255        8.5003784678
O                58.0221185387       20.5744143006        9.4025860703
C                56.7460065422       20.8287907615        6.2419810763
C                57.2695378869       21.2279663158        4.8576628619
C                56.1975094552       22.0344067753        6.9979770861
C                56.2461099862       21.9195741571        3.9637872896
H                57.5890631813       18.1956894778        6.3527118584
H                58.7609307675       20.8150281558        7.0528279658
H                55.9578786749       20.0778577915        6.1154365576
H                58.1375220904       21.8869450547        4.9625109572
H                57.6286249487       20.3326130118        4.3335169778
H                55.3344133986       22.4323824418        6.4758128627
H                55.8972910920       21.7428508977        7.9990850689
H                56.9609543194       22.8043909235        7.0603728818
H                56.6970740831       22.0861255734        2.9868329640
H                55.3698135044       21.2935283852        3.8061568972
H                55.9408799035       22.8765685627        4.3748067247
N                56.4608065537       19.1124582058        8.7228798141
C                55.8637300329       19.0451877052       10.0436455084
C                56.8960899296       18.5893018238       11.0765783079
O                57.0844913680       19.2364539003       12.1000674034
C                54.6202343836       18.1489485480       10.0886491261
C                53.5700748597       18.5538249323        9.0399694337
C                54.0327522091       18.1453370168       11.4976071266
C                52.8390330796       19.8639559383        9.3142554071
H                56.0874722216       18.5681122385        7.9577261721
H                55.5869545274       20.0677667462       10.3383224574
H                54.9563391321       17.1322126180        9.8527073385
H                54.0508130850       18.6224238782        8.0608652498
H                52.8314540502       17.7493175964        8.9746716742
H                53.1015457693       17.5859222340       11.5000746398
H                54.7232046467       17.6763441998       12.1917225962
H                53.8455555219       19.1615565658       11.8309753016
H                52.1903591516       20.0854989044        8.4701606077
H                52.2215583164       19.7843784085       10.2033368062
H                53.5333902316       20.6920403977        9.4231622869
N                57.5501479272       17.4558086121       10.8199768205
C                58.4524425579       16.9255849504       11.8243136868
C                59.6098333200       17.9126542911       12.0633346098
O                59.8698408894       18.2759952086       13.2130244282
C                58.8940706698       15.5006637977       11.4900237503
C                57.7549619964       14.5085794757       11.6899170516
S                58.2061132869       12.8268522814       11.1029668243
C                58.8301409532       12.0734707276       12.6189943887
H                57.3641535938       16.8836017224       10.0004578386
H                57.9172034158       16.8977446168       12.7889196680
H                59.2027864439       15.4272343565       10.4484571311
H                59.7342589805       15.2220630063       12.1285400765
H                57.4599750527       14.4111877759       12.7338742104
H                56.8923704311       14.7912317798       11.0892219162
H                59.3649611351       11.1717213738       12.3378056653
H                59.5060390959       12.7518334042       13.1296606909
H                58.0111568824       11.7919394134       13.2787127202
N                60.2643682038       18.4096850309       11.0155393094
C                61.2647410278       19.4513291740       11.2321653000
C                60.7720669492       20.6305611096       12.0698997935
O                61.5164193070       21.1488377513       12.8883256427
C                61.6580167989       19.8817724919        9.8176791416
C                61.4963659984       18.5875378954        9.0301869577
C                60.2184253212       17.9973849354        9.6223941109
H                62.1203481409       19.0177420614       11.7665628758
H                60.9490833965       20.6156218810        9.4324223317
H                62.6628285235       20.2873542582        9.7439870519
H                61.4131108926       18.7515865625        7.9575958789
H                62.3343235885       17.9135201791        9.2058379020
H                59.3396719084       18.4098914057        9.1172734480
H                60.1835345227       16.9151712387        9.5100437493
N                59.5648234423       21.1334118650       11.7746628355
C                59.0009339746       22.1697817867       12.6221652598
C                59.0041798328       21.7413048234       14.0880722052
O                59.6387931928       22.3677251919       14.9281017732
C                57.5730344777       22.5459487470       12.2287388261
C                57.4478963891       23.3522564043       10.9301564418
C                55.9828693919       23.3668154788       10.4999504457
C                57.9276241423       24.7919850685       11.1030865808
H                58.9403872797       20.6737065856       11.1207561331
H                59.6574067781       23.0492845069       12.5998406812
H                57.0081964972       21.6189115718       12.1314744201
H                57.1373094188       23.1220134006       13.0478296286
H                58.0211752705       22.8398570864       10.1539769940
H                55.8618957532       23.9285197721        9.5780482911
H                55.6229736978       22.3539918537       10.3328452621
H                55.3660648480       23.8220810841       11.2713724008
H                58.0179553002       25.2706105792       10.1325586962
H                57.2006788188       25.3472154392       11.6907299944
H                58.8772867138       24.8424406417       11.6242443086
N                58.2003390039       20.7207040004       14.3832598303
C                57.9600672480       20.3591526955       15.7631440300
C                59.2920947859       20.2832590460       16.5223990993
O                59.4238841489       20.8158178324       17.6185689903
C                57.1382325766       19.0643050381       15.8509229859
C                55.7549286346       19.3035705263       15.2260755195
C                57.0134958940       18.6077837868       17.3028008465
C                54.9005024441       18.0448154166       15.1447171596
H                57.8300797930       20.1277654771       13.6498723158
H                57.3875746541       21.1685538509       16.2412868818
H                57.6646625581       18.2890302876       15.2810533037
H                55.2256794099       20.0540621693       15.8155692831
H                55.8821227091       19.6852902634       14.2130427488
H                56.5445619441       17.6290829811       17.3533626942
H                57.9893472410       18.5243357194       17.7779247630
H                56.4103345202       19.3112164887       17.8723249329
H                53.9721896709       18.2602136941       14.6221371649
H                55.4249214992       17.2587755603       14.6020318447
H                54.6531641608       17.6619667993       16.1304507569
N                60.2595627189       19.6420306158       15.8570986658
C                61.5506167871       19.3287222850       16.4196104292
C                62.4829779044       20.5112614104       16.6937604717
O                63.5435637201       20.3195796084       17.2752190788
H                60.0380047970       19.2212793541       14.9625929211
H                61.4253468841       18.8345540903       17.3897196013
H                62.0610781676       18.6407031075       15.7443960219
N                62.1038682783       21.7032675973       16.2293321560
C                62.8433173320       22.9091634035       16.5145129182
C                62.1010506558       23.9030592638       17.4115779616
O                62.6914712641       24.8859132935       17.8396425412
C                63.2473556046       23.6318220274       15.2221369006
C                64.2295541514       22.7957371990       14.4029817607
C                64.8757335955       23.6250633563       13.2904376246
C                65.7263437222       22.7725361728       12.3540109349
N                66.9467001248       22.2871301978       13.0563661858
H                61.2506795425       21.8010625416       15.6884841949
H                63.7388397275       22.6062953984       17.0703953931
H                62.3384120344       23.8233663605       14.6517647164
H                63.6965908572       24.5827920868       15.5116141580
H                64.9819277908       22.4122831632       15.0926348317
H                63.6851909469       21.9499581482       13.9814358777
H                64.0886269886       24.0978137809       12.7086077431
H                65.4748742433       24.4263759337       13.7251105323
H                65.1541423900       21.9078909244       12.0135028755
H                66.0420203641       23.3595182571       11.4893310991
H                67.5335116451       21.7225257989       12.4261460755
H                67.4983309124       23.0886166381       13.3994315309
H                66.6724738794       21.7082846293       13.8646708619
N                60.7945568449       23.6811042903       17.6052644469
C                59.9933497606       24.5550562725       18.4399662451
C                59.5415906736       23.7476671976       19.6658141847
O                60.3314145550       23.4992234425       20.5682118306
C                58.9151123866       25.2969573927       17.6195085632
C                58.1803717333       24.3904533255       16.6219692505
C                59.5863867573       26.4425632234       16.8591926438
C                56.9071992991       25.0276003196       16.0677411791
H                60.3903093326       22.7929793820       17.3418003454
H                60.6984352800       25.2996896502       18.8351935777
H                58.1999078468       25.7202194950       18.3338804260
H                58.8544781098       24.1601645877       15.7992641571
H                57.9399739532       23.4290855029       17.0823825091
H                58.8490718162       26.9977502385       16.2890506191
H                60.0821889994       27.1238816759       17.5449384751
H                60.3345476380       26.0412624389       16.1809363074
H                56.3133899051       24.2782995290       15.5483476104
H                56.3065670316       25.4526023303       16.8687513832
H                57.1434981684       25.8182660057       15.3627133960
N                58.2708872084       23.3291583500       19.6717571938
C                57.6417641889       22.5848117611       20.7404210385
C                58.6010704748       21.6843362011       21.5172163180
O                58.5843418563       21.6989862145       22.7427009702
C                56.4847826510       21.7401665494       20.1640666174
C                55.2512593043       22.5794473936       19.9621542655
C                55.1070764756       23.3997275532       18.8499253497
C                54.2427621652       22.5769141743       20.9184018601
C                54.0072382009       24.2292265068       18.7164758265
C                53.1282487077       23.3844686029       20.7736256622
C                53.0151987481       24.2264020060       19.6805042178
H                57.6450812704       23.6252158063       18.9382905841
H                57.2394720628       23.2855372662       21.4887768083
H                56.8250610581       21.2921055045       19.2281793725
H                56.2666694127       20.9350166060       20.8670604824
H                55.8472587658       23.3748873550       18.0663462970
H                54.3327926418       21.9299632245       21.7787267727
H                53.9232315015       24.8742269036       17.8554261704
H                52.3477880549       23.3560680645       21.5185950811
H                52.1542262806       24.8682995198       19.5770509737
N                59.3310644001       20.7976537830       20.8277988693
C                60.2211734623       19.9199306675       21.5542500270
C                61.2143152845       19.2418750703       20.6264949789
O                61.3843245996       19.5965513741       19.4774974707
H                59.4576154400       20.8394344925       19.8221965008
H                60.7722292803       20.5100560411       22.2980588866
H                59.6309182330       19.1671439613       22.0890486507
N                61.9555127816       18.2734233132       21.2244637674
C                62.7375981644       17.3764110425       20.4011474518
C                61.7963217438       16.5173700987       19.5304761419
O                60.5824386614       16.6485445935       19.5774382123
C                63.6862747539       16.5321235261       21.2577509976
O                64.6010135124       15.8788657169       20.4077736288
H                61.6130294956       17.8934117730       22.0949588902
H                63.3257461268       17.9928332929       19.7090200720
H                64.2122286367       17.2082238372       21.9425482677
H                63.1046429701       15.8016593572       21.8363162760
H                65.2078240201       15.3490480596       20.9428663923
N                62.4428016649       15.6859366633       18.7026067703
C                61.7685153339       14.9516931401       17.6551127994
C                61.1093450628       13.6543441900       18.1506139639
O                59.9069667869       13.4792734595       18.0087193681
C                62.6940256848       14.7581670930       16.4368130378
C                63.9761140939       13.9795087326       16.7237594097
C                61.9142030245       14.0986143571       15.3005634629
H                63.4443241154       15.5809923950       18.8277221605
H                60.9147889460       15.5686622915       17.3393611070
H                62.9754535523       15.7684499288       16.1181243464
H                64.6246483981       14.0496738561       15.8543381719
H                64.5123128302       14.3817157492       17.5789653863
H                63.7592429286       12.9273827408       16.8894937894
H                62.5460506980       13.9814513523       14.4240505753
H                61.5434532009       13.1128220249       15.5867606125
H                61.0463686894       14.6966835317       15.0275254897
N                61.9057081563       12.7727134832       18.7841210844
C                61.4540196597       11.4305428154       19.0724341712
C                62.2422567023       10.8279691485       20.2267028480
O                63.3434851042       11.2305598234       20.5611002498
C                61.6024129929       10.5107192937       17.8466822165
C                60.2597327853       10.4936348057       17.0325252734
O                59.2772780782       10.0427450121       17.6528339065
O                60.3177400237       10.9072399611       15.8613690296
H                62.9018686564       12.9263269629       18.8670525721
H                60.3875012654       11.4787176229       19.3277931353
H                62.4127206162       10.8468815694       17.2000868114
H                61.7883522936        9.4792367852       18.1519012278
N                61.6239910189        9.7800217284       20.7933692957
C                62.1653662741        9.0215177196       21.9121562588
C                61.5477054687        7.6377991625       21.8611240923
O                60.3802184939        7.4015151404       22.1859161854
C                61.9010764978        9.7359763228       23.2655073315
C                60.5359950058       10.3569335432       23.3044925112
C                59.4541974792        9.6736008002       23.8468112744
C                60.3276702920       11.6078409424       22.7334966064
C                58.1833615811       10.2195566946       23.7915082737
C                59.0594609551       12.1547690802       22.6792765646
C                57.9839302852       11.4579624777       23.2024508680
H                60.6999558893        9.5336693505       20.4713136861
H                63.2475153007        8.9388596997       21.7672084223
H                61.9911099339        8.9828099688       24.0492117580
H                62.6678251190       10.5039113597       23.3807327164
H                59.6109434726        8.6932051622       24.2771894686
H                61.1630561933       12.1422975163       22.3052548441
H                57.3468412394        9.6612418141       24.1896464701
H                58.9149018382       13.1173290315       22.2127030034
H                56.9893373429       11.8707873802       23.1387602931
N                62.4413043953        6.6411334611       21.3893510979
C                61.8958879399        5.2897277818       21.3601053629
C                62.9780050247        4.2149297995       21.3467216006
O                62.7010736840        3.0148380426       21.4279997533
C                60.9554718447        5.0607873266       20.1790278324
H                62.8071517307        6.9010341730       20.4749588595
H                61.3165249207        5.1639480676       22.2858879055
H                60.5570766161        4.0484427451       20.1961821936
H                60.1083176628        5.7397051242       20.2721855032
H                61.4696981771        5.2238447504       19.2291199023
N                57.0077906045        4.3710103657       19.2830669890
C                57.3759100376        5.3696415895       18.3105290702
C                56.3343447159        5.4454938890       17.2111985321
O                55.8707428662        6.5132593918       16.7891233331
C                58.7086117169        5.0766872644       17.6302083206
C                59.1571332107        6.2672030088       16.7850076308
C                60.5456624389        6.0338063621       16.2234391505
O                61.5344850969        5.8974533249       16.9351498159
N                60.6233534454        5.9738671923       14.8896762073
H                57.6651951281        3.6535729346       19.5532241647
H                57.4049725849        6.3570430453       18.8113284750
H                59.4582065420        4.8456844218       18.3827093210
H                58.5867070825        4.1854190979       17.0090941177
H                58.4267522350        6.4573169595       15.9956397956
H                59.1887211431        7.1621642597       17.4142275601
H                59.8071468174        6.1618545948       14.3327596225
H                61.5250201172        5.8325640199       14.4579782659
N                53.0958726713        7.0383390100       18.2857193725
C                53.3209118807        8.4689072626       18.2970953185
C                53.2121992961        9.0025065450       16.8692500959
O                52.5252823281        9.9838904656       16.5849687505
C                54.6746351415        8.7842451284       18.9516489950
C                54.6335354610        8.3842559116       20.4332526145
C                55.0183233032       10.2576012849       18.7578914532
C                55.9861875147        8.5081488984       21.1237058751
H                53.8855967799        6.4395333518       18.4941778824
H                52.5073088988        8.9400273893       18.8679830229
H                55.4357118981        8.1903037041       18.4300304474
H                53.9017968475        9.0086016774       20.9474375523
H                54.3051098350        7.3455002988       20.4923469695
H                56.0081162775       10.4660175827       19.1530697025
H                55.0424456201       10.4954281789       17.6943017696
H                54.2813148841       10.8937579823       19.2400983072
H                55.9337684072        8.0772593140       22.1188540745
H                56.7485414111        7.9771634168       20.5551777124
H                56.2993391142        9.5445547922       21.2026654845
N                53.8684456653        8.2991436583       15.9425569358
C                53.8185308620        8.7177763532       14.5652994739
C                52.3928988224        8.6538670556       14.0457785737
O                51.9256946881        9.5494732891       13.3275681757
C                54.7432849932        7.8867588492       13.6952967232
C                56.2544703438        8.2151040995       13.9965313988
O                56.5153284836        9.4015883634       14.2439660347
O                57.0530545274        7.2636253934       13.9107816462
H                54.5387769441        7.5844519432       16.1926161605
H                54.1601530564        9.7657496204       14.4906422193
H                54.5556424442        6.8190092807       13.8230400633
H                54.5718957630        8.1421526043       12.6436015608
N                50.7282222371       11.8435288261       15.0189032432
C                51.1035286430       13.0557863879       14.3289359146
C                50.7994776390       13.0068751337       12.8325798243
O                50.6476395636       14.0487845466       12.2005959648
C                52.5529490062       13.5048876807       14.5811546477
C                53.5319182899       12.6980457244       13.7265472821
C                52.8685418865       13.4376258444       16.0727179649
C                54.9816148109       13.1265290244       13.9105550045
H                51.4246339121       11.1620476414       15.2851588995
H                50.4437639100       13.8408666518       14.7315802016
H                52.6051895559       14.5475007208       14.2464716832
H                53.4369819508       11.6316320215       13.9502174785
H                53.2624804697       12.8210384356       12.6724127713
H                53.8067766817       13.9404246241       16.2829183950
H                52.0747700666       13.9134674291       16.6409138531
H                52.9581525950       12.4024362069       16.3945013194
H                55.6050363020       12.6153472795       13.1793729999
H                55.0797876466       14.2005256553       13.7705626297
H                55.3521829629       12.8502314739       14.8947442992
N                47.3536327005       14.2142087540       12.7271642420
C                47.4583209977       15.6532990271       12.8420287547
C                47.7564621947       16.2960193548       11.4896650216
O                47.1229602178       17.2654931567       11.0832393969
C                48.5756205357       16.0433681055       13.8169736184
C                48.9396429061       17.4936289065       13.6325582047
C                48.0280813381       18.5034186579       13.9145708514
C                50.1891188384       17.8352818854       13.1344539980
C                48.3596038279       19.8271581115       13.6895061669
C                50.5267522229       19.1609481010       12.9264437856
C                49.6094995287       20.1601438627       13.1965572198
H                47.9039222456       13.6238492285       13.3439020319
H                46.4875121616       16.0495314480       13.1672221073
H                48.2498919762       15.8434382993       14.8386058732
H                49.4413648385       15.4219547017       13.5859363497
H                47.0546887465       18.2440339528       14.3017698985
H                50.8947299662       17.0514527500       12.8978320698
H                47.6426829386       20.6014714475       13.9070419035
H                51.5079618246       19.4039342582       12.5486732691
H                49.8773392323       21.1895399307       13.0201673645
N                65.8410060314       27.3869002387       10.2453007564
C                65.5426552240       25.9758891475       10.2357165381
C                65.5190685723       25.5509650762        8.7701397590
O                65.8503121577       26.3425306458        7.8733089924
H                66.2928012131       27.6276709230        9.3618146265
H                66.3419675302       25.4535469502       10.7673359740
H                64.5825251604       25.7766290700       10.7184020364
N                65.2599549200       24.2342102815        8.5336913489
C                65.0944293828       23.7832377958        7.1523041696
C                63.8088240219       22.9890646077        7.0794425106
O                63.5845796981       22.0165884357        7.8254309507
C                66.3797514420       23.0492800015        6.6988507807
C                66.3657185395       22.7967255994        5.1890295134
C                66.5963152201       21.7576379292        7.4805298483
C                67.7645839058       22.5635550996        4.6225814036
H                64.7351533418       23.7003066212        9.2141427947
H                64.9920181056       24.6707718115        6.5175017025
H                67.1975766435       23.7521935057        6.9070399684
H                65.7151455285       21.9485117517        4.9481019737
H                65.9278068173       23.6517739425        4.6655062559
H                67.4718613318       21.2452989417        7.0907343656
H                66.6577837796       21.9876884245        8.5396455178
H                65.7402100674       21.1008735490        7.3402021322
H                67.7272950179       22.6637073917        3.5405750438
H                68.4603254982       23.3096573350        4.9987672389
H                68.1340673106       21.5698200565        4.8586111580
N                62.8201592163       23.5906243630        6.3138608679
C                61.6859452238       22.8189218005        5.8475259974
C                61.8604815040       22.6385128617        4.3389899541
O                62.7447426175       23.2745615657        3.7460560956
C                60.3337920089       23.5103300861        6.1427004818
C                60.3990479778       24.5173144716        7.2879221902
C                60.7807879758       23.8831653277        8.6263463492
C                61.2265843606       24.9414717072        9.6300473495
N                61.6748135198       24.2945033832       10.8943029169
H                63.1637696404       24.1314574674        5.5254801917
H                61.7008532124       21.8296815074        6.3199071439
H                59.9936042915       24.0221384359        5.2360501094
H                59.6110015947       22.7241572018        6.3689737178
H                61.1427581370       25.2642528864        7.0096521922
H                59.4232611295       24.9997411980        7.3604336640
H                59.9316179345       23.3181568281        9.0177177669
H                61.5870235538       23.1699129455        8.4496462605
H                62.0570370557       25.5222153891        9.2192573979
H                60.4057803614       25.6207987783        9.8626027239
H                62.0670386234       24.9970506185       11.5399901393
H                60.8864594237       23.7994022040       11.3652221486
H                62.3595283617       23.5563881296       10.6799345336
H                54.1531570505       16.3572462276        6.1704975745
H                59.2027497605       16.1418903474        6.1417901590
H                58.6723972966       19.0357198783        5.6799255835
H                63.9404906336        4.4753715509       21.2706193875
H                56.7977009130        4.7721748101       20.0608390700
H                55.9891771244        4.6064270531       16.7906914826
H                52.4699055877        6.8278162917       18.8971483506
H                51.8090777369        7.8770474868       14.2817961525
H                50.3300845188       12.0525418941       15.7985184654
H                50.7238216159       12.1254877775       12.3662832508
H                46.5030785592       13.9618402292       12.8783852076
H                48.4836677075       15.9276592771       10.9104560823
