 473 
 
N                 2.3640000000       95.1570000000       -1.2670000000
C                 1.5980000000       93.9760000000       -0.8890000000
C                 2.4440000000       93.0070000000       -0.0720000000
O                 2.1350000000       92.7000000000        1.0770000000
C                 1.0600000000       93.2900000000       -2.1380000000
H                 2.6900000000       95.1350000000       -2.2330000000
H                 0.7520000000       94.2860000000       -0.2750000000
H                 0.4900000000       92.4100000000       -1.8420000000
H                 0.4160000000       93.9860000000       -2.6760000000
H                 1.8980000000       92.9950000000       -2.7700000000
N                 3.5110000000       93.3380000000        3.5710000000
C                 2.6330000000       92.9350000000        4.6600000000
C                 2.4970000000       91.4250000000        4.7720000000
O                 2.3520000000       90.8850000000        5.8760000000
C                 1.2260000000       93.5770000000        4.4830000000
C                 0.3400000000       92.7690000000        3.5090000000
C                 1.3620000000       95.0570000000        4.0230000000
C                -0.5700000000       91.7560000000        4.1530000000
H                 3.0170000000       93.4260000000        2.6830000000
H                 3.0740000000       93.2970000000        5.5880000000
H                 0.7300000000       93.5560000000        5.4530000000
H                -0.2900000000       93.4670000000        2.9580000000
H                 0.9900000000       92.2300000000        2.8200000000
H                 0.3660000000       95.4850000000        3.9050000000
H                 1.9190000000       95.6130000000        4.7770000000
H                 1.8940000000       95.0860000000        3.0720000000
H                -1.1430000000       91.2500000000        3.3760000000
H                 0.0350000000       91.0330000000        4.7000000000
H                -1.2450000000       92.2700000000        4.8380000000
N                 2.5290000000       90.7510000000        3.6260000000
C                 2.3580000000       89.3120000000        3.6080000000
C                 3.5770000000       88.6200000000        4.2010000000
O                 3.6100000000       87.3910000000        4.2850000000
C                 2.0980000000       88.7950000000        2.1950000000
C                 0.9690000000       87.7610000000        2.1330000000
C                -0.2140000000       88.4430000000        1.4740000000
C                 1.3580000000       86.4930000000        1.3790000000
H                 2.6700000000       91.1730000000        2.7080000000
H                 1.4710000000       89.0510000000        4.1850000000
H                 1.8210000000       89.6350000000        1.5570000000
H                 3.0070000000       88.3250000000        1.8190000000
H                 0.7210000000       87.4210000000        3.1380000000
H                -1.0420000000       87.7360000000        1.4120000000
H                -0.5060000000       89.3050000000        2.0740000000
H                 0.0750000000       88.7660000000        0.4740000000
H                 0.5100000000       85.8080000000        1.3760000000
H                 1.6270000000       86.7570000000        0.3560000000
H                 2.2090000000       86.0300000000        1.8790000000
N                 0.1170000000       91.3520000000       11.0390000000
C                -0.4700000000       92.2040000000       10.0180000000
C                -1.3580000000       91.3350000000        9.1570000000
O                -2.4440000000       91.7290000000        8.7340000000
C                 0.6050000000       92.9150000000        9.1520000000
O                 1.3810000000       91.9440000000        8.4420000000
C                 1.5270000000       93.7730000000       10.0170000000
H                 1.1240000000       91.2200000000       10.9410000000
H                -1.0350000000       93.0090000000       10.4880000000
H                 0.1070000000       93.5700000000        8.4370000000
H                 1.3530000000       91.0840000000        8.9120000000
H                 2.2740000000       94.2640000000        9.3930000000
H                 0.9470000000       94.5340000000       10.5390000000
H                 2.0350000000       93.1490000000       10.7520000000
N                -0.8950000000       90.1220000000        8.9250000000
C                -1.6560000000       89.2270000000        8.1090000000
C                -2.9520000000       88.8930000000        8.8190000000
O                -4.0060000000       89.3810000000        8.4080000000
C                -0.8500000000       87.9810000000        7.7570000000
C                -1.3160000000       87.2240000000        6.5020000000
C                -2.4450000000       87.9280000000        5.7110000000
C                -0.1300000000       86.9690000000        5.5840000000
H                -0.0160000000       89.7480000000        9.2840000000
H                -1.9010000000       89.6960000000        7.1560000000
H                 0.1850000000       88.2790000000        7.5910000000
H                -0.9090000000       87.2870000000        8.5960000000
H                -1.7430000000       86.2830000000        6.8500000000
H                -2.7050000000       87.3190000000        4.8450000000
H                -3.3140000000       88.0420000000        6.3590000000
H                -2.0930000000       88.9070000000        5.3850000000
H                -0.4750000000       86.4330000000        4.7000000000
H                 0.3060000000       87.9250000000        5.2930000000
H                 0.6090000000       86.3710000000        6.1170000000
N                -4.7020000000       89.9150000000       10.6880000000
C                -5.5950000000       91.0540000000       10.5620000000
C                -6.2510000000       91.0420000000        9.2030000000
O                -7.4120000000       90.6690000000        9.0640000000
C                -4.8290000000       92.3490000000       10.7740000000
H                -3.7380000000       90.1900000000       10.8780000000
H                -6.3740000000       91.0000000000       11.3230000000
H                -5.5170000000       93.1890000000       10.6760000000
H                -4.3910000000       92.3430000000       11.7720000000
H                -4.0430000000       92.4230000000       10.0230000000
N                -5.4940000000       91.4020000000        8.1830000000
C                -6.0940000000       91.5280000000        6.8820000000
C                -6.8010000000       90.2370000000        6.5100000000
O                -7.5290000000       90.1810000000        5.5270000000
C                -5.0630000000       91.9980000000        5.8630000000
C                -5.5960000000       93.1070000000        4.9640000000
C                -5.9710000000       94.3890000000        5.7220000000
O                -6.9280000000       94.4080000000        6.5030000000
N                -5.2220000000       95.4620000000        5.4790000000
H                -4.4960000000       91.6050000000        8.2300000000
H                -6.8640000000       92.3000000000        6.8770000000
H                -4.1890000000       92.3800000000        6.3910000000
H                -4.7780000000       91.1570000000        5.2310000000
H                -4.8300000000       93.3650000000        4.2330000000
H                -6.4910000000       92.7470000000        4.4560000000
H                -4.4470000000       95.4040000000        4.8190000000
H                -5.4230000000       96.3420000000        5.9530000000
N                -6.6010000000       89.2100000000        7.3290000000
C                -7.1580000000       87.9000000000        7.0630000000
C                -8.5930000000       87.8710000000        7.4960000000
O                -9.4600000000       87.4020000000        6.7640000000
C                -6.3710000000       86.8370000000        7.7810000000
H                -6.0540000000       89.2580000000        8.1890000000
H                -7.0940000000       87.6830000000        5.9970000000
H                -6.8100000000       85.8630000000        7.5640000000
H                -5.3380000000       86.8650000000        7.4340000000
H                -6.4080000000       87.0310000000        8.8530000000
N                -8.8320000000       88.3840000000        8.6960000000
C               -10.1700000000       88.4890000000        9.2430000000
C               -11.0870000000       88.9930000000        8.1490000000
O               -12.2980000000       88.8240000000        8.2040000000
C               -10.1970000000       89.4740000000       10.4200000000
C                -9.5360000000       89.0090000000       11.7160000000
C               -10.2490000000       87.8080000000       12.2730000000
N               -10.6250000000       87.9750000000       13.6790000000
C               -10.2590000000       87.1640000000       14.6780000000
N                -9.4800000000       86.1060000000       14.4430000000
N               -10.6770000000       87.4100000000       15.9250000000
H                -8.1070000000       88.7400000000        9.3200000000
H               -10.5050000000       87.5190000000        9.6110000000
H                -9.6850000000       90.3850000000       10.1100000000
H               -11.2390000000       89.6930000000       10.6540000000
H                -8.4990000000       88.7360000000       11.5190000000
H                -9.5770000000       89.8100000000       12.4540000000
H               -11.1590000000       87.6370000000       11.6990000000
H                -9.5940000000       86.9400000000       12.2000000000
H               -11.2130000000       88.7740000000       13.9150000000
H                -9.1580000000       85.9100000000       13.4950000000
H                -9.2060000000       85.4930000000       15.2110000000
H               -11.2740000000       88.2150000000       16.1130000000
H               -10.3990000000       86.7920000000       16.6870000000
N               -10.4850000000       89.6040000000        7.1380000000
C               -11.2400000000       90.2850000000        6.0990000000
C               -12.0870000000       89.3230000000        5.2680000000
O               -13.2160000000       89.6570000000        4.8870000000
C               -10.3020000000       91.1240000000        5.2140000000
C                -9.9460000000       90.5400000000        3.8350000000
C               -10.6270000000       91.3020000000        2.6980000000
O               -11.8430000000       91.6200000000        2.8370000000
O                -9.9420000000       91.5940000000        1.6760000000
H                -9.4740000000       89.6460000000        7.0090000000
H               -11.9340000000       90.9730000000        6.5820000000
H               -10.7780000000       92.0890000000        5.0380000000
H                -9.3650000000       91.2630000000        5.7530000000
H                -8.8680000000       90.6000000000        3.6880000000
H               -10.2710000000       89.5000000000        3.7910000000
N               -11.5550000000       88.1300000000        5.0110000000
C               -12.1840000000       87.2540000000        4.0470000000
C               -12.5220000000       85.9020000000        4.6290000000
O               -11.9200000000       85.4640000000        5.6060000000
C               -11.2890000000       87.1060000000        2.8240000000
O               -12.0060000000       86.4870000000        1.7830000000
H               -10.7110000000       87.7610000000        5.4480000000
H               -13.1400000000       87.6840000000        3.7500000000
H               -10.9600000000       88.0920000000        2.4970000000
H               -10.4260000000       86.4920000000        3.0820000000
H               -12.0440000000       87.0800000000        1.0040000000
N               -11.8430000000       81.7550000000        0.5210000000
C               -10.9090000000       82.5370000000       -0.2640000000
C                -9.4960000000       82.1660000000        0.0740000000
O                -8.7740000000       81.6070000000       -0.7500000000
C               -11.0400000000       84.0140000000        0.0680000000
O               -12.4310000000       84.3610000000        0.1900000000
C               -10.3530000000       84.8560000000       -1.0010000000
H               -12.4090000000       82.3230000000        1.1510000000
H               -11.1260000000       82.3510000000       -1.3160000000
H               -10.5530000000       84.2340000000        1.0180000000
H               -12.5300000000       85.1520000000        0.7610000000
H               -10.4480000000       85.9150000000       -0.7600000000
H                -9.2950000000       84.5990000000       -1.0550000000
H               -10.8120000000       84.6720000000       -1.9730000000
N                -9.1240000000       82.4930000000        1.3060000000
C                -7.7850000000       82.2920000000        1.8110000000
C                -7.3390000000       80.9080000000        1.4200000000
O                -6.3770000000       80.7550000000        0.6740000000
C                -7.7540000000       82.4730000000        3.3260000000
C                -8.7130000000       83.5270000000        3.8960000000
C                -8.5190000000       83.7710000000        5.3830000000
C                -8.5770000000       84.8320000000        3.1550000000
H                -9.7490000000       82.9110000000        1.9950000000
H                -7.1040000000       83.0350000000        1.3970000000
H                -8.0110000000       81.5200000000        3.7880000000
H                -6.7440000000       82.7660000000        3.6130000000
H                -9.7200000000       83.1320000000        3.7630000000
H                -9.2310000000       84.5270000000        5.7140000000
H                -8.6900000000       82.8390000000        5.9210000000
H                -7.5000000000       84.1180000000        5.5560000000
H                -9.2700000000       85.5570000000        3.5830000000
H                -7.5530000000       85.1920000000        3.2560000000
H                -8.8120000000       84.6690000000        2.1030000000
N                -6.8920000000       80.5480000000       -2.1470000000
C                -5.8730000000       81.4120000000       -2.6400000000
C                -4.4880000000       81.0130000000       -2.1170000000
O                -3.4700000000       81.3350000000       -2.7200000000
C                -6.2320000000       82.8230000000       -2.2630000000
C                -5.6640000000       83.2230000000       -0.9510000000
S                -4.1080000000       84.0290000000       -1.2930000000
C                -4.7440000000       85.6340000000       -1.7750000000
H                -7.4340000000       80.9300000000       -1.3720000000
H                -5.8210000000       81.3760000000       -3.7280000000
H                -5.8450000000       83.5030000000       -3.0210000000
H                -7.3170000000       82.9100000000       -2.2030000000
H                -6.3320000000       83.9180000000       -0.4420000000
H                -5.4920000000       82.3460000000       -0.3270000000
H                -3.9080000000       86.2850000000       -2.0290000000
H                -5.3960000000       85.5120000000       -2.6400000000
H                -5.3060000000       86.0580000000       -0.9420000000
N                -3.1650000000       78.4220000000       -4.4480000000
C                -2.5640000000       79.2630000000       -5.4630000000
C                -1.1350000000       79.5870000000       -5.0940000000
O                -0.1960000000       79.1470000000       -5.7620000000
C                -3.3620000000       80.5620000000       -5.6580000000
C                -4.7520000000       80.3890000000       -6.2970000000
C                -5.5700000000       81.6940000000       -6.3280000000
C                -7.0730000000       81.4340000000       -6.4230000000
N                -7.4840000000       80.8800000000       -7.7520000000
H                -4.0650000000       78.7770000000       -4.1250000000
H                -2.5740000000       78.7250000000       -6.4110000000
H                -3.5080000000       81.0260000000       -4.6820000000
H                -2.7870000000       81.2250000000       -6.3040000000
H                -4.6290000000       80.0460000000       -7.3240000000
H                -5.3160000000       79.6540000000       -5.7240000000
H                -5.3810000000       82.2570000000       -5.4140000000
H                -5.2720000000       82.2820000000       -7.1960000000
H                -7.3580000000       80.7140000000       -5.6560000000
H                -7.6060000000       82.3720000000       -6.2700000000
H                -8.5120000000       80.7200000000       -7.7680000000
H                -7.2340000000       81.5480000000       -8.5090000000
H                -6.9990000000       79.9760000000       -7.9260000000
N                -0.9440000000       80.3330000000       -4.0190000000
C                 0.4060000000       80.6870000000       -3.6890000000
C                 1.2400000000       79.4690000000       -3.8030000000
O                 2.1340000000       79.3790000000       -4.6250000000
C                 0.5190000000       81.1350000000       -2.2680000000
C                 1.8810000000       81.8130000000       -2.1350000000
C                 1.9010000000       83.0480000000       -3.0340000000
C                 2.2110000000       82.1980000000       -0.6720000000
H                -1.6710000000       80.6850000000       -3.3950000000
H                 0.7210000000       81.4960000000       -4.3480000000
H                -0.2710000000       81.8470000000       -2.0290000000
H                 0.4670000000       80.2800000000       -1.5940000000
H                 2.6570000000       81.1130000000       -2.4440000000
H                 2.8710000000       83.5370000000       -2.9440000000
H                 1.7350000000       82.7380000000       -4.0660000000
H                 1.1110000000       83.7290000000       -2.7190000000
H                 3.1900000000       82.6760000000       -0.6430000000
H                 1.4500000000       82.8880000000       -0.3060000000
H                 2.2190000000       81.2960000000       -0.0610000000
N               -11.0580000000       93.8850000000       -1.8680000000
C                -9.6610000000       94.0960000000       -1.3810000000
C                -8.8140000000       94.8480000000       -2.3990000000
O                -9.0080000000       94.7200000000       -3.6130000000
C                -8.9940000000       92.7530000000       -1.0630000000
O                -7.7240000000       92.9500000000       -0.4620000000
H               -11.2590000000       92.8660000000       -1.9140000000
H               -11.7260000000       94.3400000000       -1.2140000000
H               -11.1620000000       94.3020000000       -2.8150000000
H                -9.7060000000       94.6930000000       -0.4700000000
H                -9.6290000000       92.1950000000       -0.3750000000
H                -8.8650000000       92.1930000000       -1.9890000000
H                -7.5220000000       92.2080000000        0.1450000000
N                -7.8830000000       95.6470000000       -1.8880000000
C                -6.8280000000       96.2020000000       -2.7150000000
C                -5.8210000000       95.0710000000       -2.8320000000
O                -5.5170000000       94.5780000000       -3.9280000000
C                -6.1740000000       97.4160000000       -2.0360000000
C                -6.8990000000       97.9650000000       -0.8000000000
C                -6.3070000000       97.4470000000        0.5070000000
O                -5.8540000000       96.2770000000        0.5570000000
O                -6.2920000000       98.2260000000        1.4910000000
H                -7.8350000000       95.9260000000       -0.9080000000
H                -7.1950000000       96.5630000000       -3.6760000000
H                -5.1700000000       97.1310000000       -1.7210000000
H                -6.1200000000       98.2260000000       -2.7640000000
H                -6.8230000000       99.0520000000       -0.7970000000
H                -7.9460000000       97.6640000000       -0.8390000000
N                -5.3550000000       94.6520000000       -1.6550000000
C                -4.3690000000       93.6020000000       -1.4930000000
C                -4.8400000000       92.2760000000       -2.0910000000
O                -4.7300000000       92.0590000000       -3.2970000000
C                -4.0180000000       93.4530000000       -0.0070000000
H                -5.6580000000       95.0410000000       -0.7620000000
H                -3.4640000000       93.8740000000       -2.0360000000
H                -3.2770000000       92.6620000000        0.1050000000
H                -3.6130000000       94.3970000000        0.3580000000
H                -4.9210000000       93.1970000000        0.5470000000
N                -5.3980000000       91.4170000000       -1.2450000000
C                -5.7290000000       90.0420000000       -1.6090000000
C                -6.4180000000       89.8820000000       -2.9620000000
O                -6.2400000000       88.8580000000       -3.6280000000
C                -6.5740000000       89.3910000000       -0.5050000000
C                -5.9690000000       88.8100000000        0.7930000000
C                -6.1390000000       87.2990000000        0.8780000000
C                -4.5040000000       89.1830000000        0.9920000000
H                -5.6390000000       91.6440000000       -0.2800000000
H                -4.7810000000       89.5110000000       -1.6960000000
H                -7.2860000000       90.1480000000       -0.1760000000
H                -7.1030000000       88.5600000000       -0.9720000000
H                -6.5290000000       89.2640000000        1.6100000000
H                -5.6960000000       86.9440000000        1.8080000000
H                -7.2020000000       87.0600000000        0.8570000000
H                -5.6380000000       86.8370000000        0.0280000000
H                -4.1480000000       88.7400000000        1.9220000000
H                -3.9230000000       88.8010000000        0.1530000000
H                -4.4180000000       90.2690000000        1.0400000000
N                -7.1750000000       90.8980000000       -3.3780000000
C                -8.0000000000       90.8000000000       -4.5830000000
C                -7.2330000000       90.3140000000       -5.8160000000
O                -7.8110000000       89.7340000000       -6.7350000000
C                -8.6880000000       92.1330000000       -4.8740000000
C               -10.0930000000       91.9840000000       -5.4620000000
C               -11.0350000000       91.2340000000       -4.5090000000
C               -12.2740000000       90.6920000000       -5.2210000000
N               -13.2900000000       91.7440000000       -5.5160000000
H                -7.2400000000       91.8000000000       -2.9060000000
H                -8.7710000000       90.0560000000       -4.3820000000
H                -8.7740000000       92.6940000000       -3.9430000000
H                -8.0840000000       92.6900000000       -5.5900000000
H               -10.5120000000       92.9730000000       -5.6470000000
H               -10.0350000000       91.4230000000       -6.3950000000
H               -10.5020000000       90.3910000000       -4.0700000000
H               -11.3660000000       91.9150000000       -3.7250000000
H               -11.9700000000       90.2450000000       -6.1680000000
H               -12.7450000000       89.9400000000       -4.5880000000
H               -14.1090000000       91.3220000000       -5.9990000000
H               -13.6110000000       92.1860000000       -4.6310000000
H               -12.8770000000       92.4760000000       -6.1290000000
N                -5.9270000000       90.5380000000       -5.8080000000
C                -5.0750000000       90.1980000000       -6.9340000000
C                -4.4950000000       88.8040000000       -6.7700000000
O                -4.3590000000       88.0410000000       -7.7350000000
C                -3.9290000000       91.2110000000       -7.0440000000
C                -2.6150000000       90.6530000000       -6.4390000000
C                -4.3820000000       92.5860000000       -6.4570000000
C                -2.1660000000       91.2800000000       -5.1190000000
H                -5.4240000000       90.9590000000       -5.0270000000
H                -5.6790000000       90.2370000000       -7.8410000000
H                -3.6930000000       91.3830000000       -8.0940000000
H                -2.7490000000       89.5860000000       -6.2600000000
H                -1.8130000000       90.8120000000       -7.1600000000
H                -3.5590000000       93.2960000000       -6.5410000000
H                -5.2430000000       92.9460000000       -7.0200000000
H                -4.6530000000       92.4530000000       -5.4100000000
H                -1.2380000000       90.8070000000       -4.7990000000
H                -2.0060000000       92.3480000000       -5.2700000000
H                -2.9410000000       91.1220000000       -4.3690000000
N                -4.1570000000       88.4900000000       -5.5250000000
C                -3.5590000000       87.2250000000       -5.1650000000
C                -4.5490000000       86.0880000000       -5.4150000000
O                -4.3800000000       84.9720000000       -4.9330000000
C                -3.1290000000       87.2660000000       -3.7000000000
C                -2.0230000000       88.2090000000       -3.2120000000
C                -2.5650000000       89.5600000000       -2.8040000000
C                -1.3120000000       87.5700000000       -2.0210000000
H                -4.2910000000       89.1110000000       -4.7270000000
H                -2.6740000000       87.0350000000       -5.7730000000
H                -4.0140000000       87.5250000000       -3.1190000000
H                -2.7950000000       86.2610000000       -3.4420000000
H                -1.3230000000       88.3730000000       -4.0320000000
H                -1.7390000000       90.1870000000       -2.4670000000
H                -3.0550000000       90.0200000000       -3.6620000000
H                -3.2830000000       89.4250000000       -1.9950000000
H                -0.5260000000       88.2410000000       -1.6750000000
H                -2.0360000000       87.4030000000       -1.2230000000
H                -0.8790000000       86.6200000000       -2.3340000000
N                -5.5920000000       86.3910000000       -6.1720000000
C                -6.5520000000       85.4000000000       -6.5730000000
C                -6.1940000000       84.9030000000       -7.9670000000
O                -6.7360000000       83.9110000000       -8.4480000000
C                -7.9550000000       86.0030000000       -6.5480000000
C                -9.0060000000       84.9910000000       -6.1850000000
O                -9.8030000000       84.5790000000       -7.0300000000
N                -9.0030000000       84.5610000000       -4.9270000000
H                -5.7930000000       87.3280000000       -6.5220000000
H                -6.5860000000       84.5540000000       -5.8860000000
H                -7.9860000000       86.8040000000       -5.8090000000
H                -8.1920000000       86.3980000000       -7.5360000000
H                -9.6920000000       83.8740000000       -4.6210000000
H                -8.3110000000       84.9180000000       -4.2680000000
N                -5.2640000000       85.5870000000       -8.6160000000
C                -4.9750000000       85.2740000000       -9.9970000000
C                -3.5790000000       84.8380000000      -10.2110000000
O                -2.6780000000       85.6330000000      -10.4270000000
C                -5.3420000000       86.4280000000      -10.8970000000
C                -6.8170000000       86.5860000000      -11.0330000000
O                -7.5730000000       85.6390000000      -10.8190000000
N                -7.2510000000       87.7930000000      -11.3870000000
H                -4.7110000000       86.3450000000       -8.2160000000
H                -5.5780000000       84.3970000000      -10.2330000000
H                -4.9380000000       87.3500000000      -10.4790000000
H                -4.9260000000       86.2550000000      -11.8890000000
H                -8.2510000000       87.9640000000      -11.4960000000
H                -6.5840000000       88.5480000000      -11.5490000000
N                -1.1460000000       86.6450000000      -12.4010000000
C                -0.7290000000       87.8990000000      -11.8350000000
C                 0.1150000000       87.6230000000      -10.6240000000
O                 1.0040000000       88.3790000000      -10.2750000000
C                -1.9500000000       88.6990000000      -11.3880000000
O                -2.4700000000       88.1280000000      -10.1810000000
C                -3.0380000000       88.6980000000      -12.4760000000
H                -2.1450000000       86.4740000000      -12.2830000000
H                -0.1820000000       88.4800000000      -12.5770000000
H                -1.6630000000       89.7350000000      -11.2090000000
H                -2.6120000000       87.1660000000      -10.2990000000
H                -3.9010000000       89.2730000000      -12.1400000000
H                -2.6500000000       89.1440000000      -13.3920000000
H                -3.3540000000       87.6760000000      -12.6870000000
N                -0.1850000000       86.5290000000       -9.9620000000
C                 0.6010000000       86.1590000000       -8.8280000000
C                 1.9760000000       85.7670000000       -9.3350000000
O                 2.9580000000       86.4650000000       -9.1070000000
C                -0.0710000000       85.0200000000       -8.0760000000
C                 0.5950000000       84.7410000000       -6.7320000000
C                 0.9300000000       86.0260000000       -5.9960000000
C                -0.2660000000       83.8550000000       -5.8710000000
H                -0.9520000000       85.8960000000      -10.1880000000
H                 0.7010000000       86.9780000000       -8.1160000000
H                -1.1130000000       85.2810000000       -7.8920000000
H                -0.0150000000       84.1130000000       -8.6790000000
H                 1.5310000000       84.2180000000       -6.9290000000
H                 1.4020000000       85.7780000000       -5.0450000000
H                 1.6120000000       86.6170000000       -6.6070000000
H                 0.0100000000       86.5840000000       -5.8200000000
H                 0.2420000000       83.6790000000       -4.9230000000
H                -1.2210000000       84.3510000000       -5.6950000000
H                -0.4280000000       82.9090000000       -6.3870000000
N                 3.8660000000       89.2510000000       -9.7370000000
C                 4.4840000000       89.9860000000       -8.6160000000
C                 5.2650000000       88.9860000000       -7.7550000000
O                 5.6960000000       89.2900000000       -6.6420000000
C                 3.4870000000       90.8290000000       -7.7750000000
C                 4.1480000000       91.8850000000       -6.8070000000
C                 3.1720000000       92.9060000000       -6.1280000000
O                 3.5020000000       93.5200000000       -5.1140000000
N                 1.9750000000       93.0900000000       -6.7200000000
H                 2.8500000000       89.3310000000       -9.7890000000
H                 5.1610000000       90.7380000000       -9.0220000000
H                 2.8370000000       91.3760000000       -8.4580000000
H                 2.8950000000       90.1500000000       -7.1610000000
H                 4.6530000000       91.3440000000       -6.0070000000
H                 4.8720000000       92.4650000000       -7.3790000000
H                 1.7420000000       92.5760000000       -7.5690000000
H                 1.3030000000       93.7440000000       -6.3190000000
H                 1.8517174426       95.8907359524       -1.1710930999
H                 3.2697938080       92.6067049427       -0.4692762941
H                 3.8803337303       94.1360710984        3.7625074870
H                 4.3526685142       89.1627353708        4.5231438704
H                -0.0253085417       91.7139962825       11.8506076456
H                -2.9452044961       88.2829549146        9.6113375637
H                -4.9776116579       89.3906746729       11.3655848031
H               -13.2461872982       85.3478385201        4.2185638766
H               -12.4043188140       81.3164714876       -0.0291035656
H                -7.8274890339       80.1081059763        1.7686373683
H                -7.4752159087       80.3639219815       -2.8072836413
H                -4.4058769991       80.4828196026       -1.2731015707
H                -3.2981370038       77.5968397642       -4.7817440989
H                 1.0759025024       78.6919734060       -3.1952980307
H                -3.3488119602       83.8653129315      -10.1811113206
H                -0.9673032911       86.6392833589      -13.2830628131
H                 2.0927957456       84.9269793380       -9.8648339751
H                 4.1920163175       89.5618765240      -10.5161464224
H                 5.4355298593       88.0607420411       -8.0938469810
