 298 
 
N                 2.2420000000       48.8530000000       87.5050000000
C                 3.6440000000       48.9910000000       87.1330000000
C                 3.8450000000       48.8320000000       85.6160000000
O                 4.4890000000       49.6700000000       84.9710000000
C                 4.4960000000       47.9920000000       87.8980000000
H                 2.0010000000       47.9470000000       87.9070000000
H                 3.9780000000       49.9910000000       87.4100000000
H                 5.5380000000       48.1150000000       87.6030000000
H                 4.3880000000       48.1780000000       88.9670000000
H                 4.1590000000       46.9830000000       87.6600000000
N                 3.2740000000       47.7690000000       85.0500000000
C                 3.4490000000       47.4620000000       83.6290000000
C                 3.4070000000       48.6790000000       82.6990000000
O                 2.4590000000       49.4750000000       82.7080000000
C                 2.4930000000       46.3610000000       83.1930000000
S                 3.3100000000       44.7590000000       83.3520000000
H                 2.6850000000       47.1010000000       85.5470000000
H                 4.4620000000       47.0770000000       83.5130000000
H                 1.6060000000       46.3700000000       83.8270000000
H                 2.2080000000       46.5110000000       82.1520000000
H                 2.5440000000       43.9590000000       84.0340000000
N                 4.4700000000       48.8080000000       81.9080000000
C                 4.7080000000       50.0000000000       81.0980000000
C                 3.4760000000       50.4820000000       80.3740000000
O                 2.6070000000       49.7070000000       79.9820000000
C                 5.7700000000       49.7790000000       79.9840000000
C                 6.3830000000       51.1060000000       79.5560000000
C                 6.8400000000       48.8520000000       80.4340000000
H                 5.1930000000       48.0960000000       81.8050000000
H                 5.0280000000       50.7350000000       81.8360000000
H                 5.2680000000       49.3290000000       79.1270000000
H                 7.1220000000       50.9210000000       78.7760000000
H                 5.5940000000       51.7540000000       79.1740000000
H                 6.8610000000       51.5710000000       80.4180000000
H                 7.5620000000       48.7250000000       79.6270000000
H                 7.3320000000       49.2760000000       81.3090000000
H                 6.3930000000       47.8910000000       80.6880000000
N                 3.4340000000       51.7870000000       80.1820000000
C                 2.5260000000       52.4000000000       79.2380000000
C                 2.9610000000       53.8300000000       79.0370000000
O                 2.8110000000       54.6660000000       79.9220000000
C                 1.0940000000       52.3700000000       79.7500000000
C                 0.1120000000       52.8930000000       78.7260000000
O                 0.4010000000       52.8980000000       77.5260000000
N                -1.0540000000       53.3380000000       79.1890000000
H                 4.0260000000       52.4560000000       80.6730000000
H                 2.5410000000       51.8540000000       78.2950000000
H                 0.8210000000       51.3420000000       79.9890000000
H                 1.0200000000       52.9930000000       80.6420000000
H                -1.7540000000       53.7020000000       78.5430000000
H                -1.2470000000       53.3150000000       80.1900000000
N                 3.4980000000       54.1390000000       77.8770000000
C                 3.9960000000       55.4840000000       77.7170000000
C                 3.0350000000       56.3380000000       76.8850000000
O                 3.2410000000       57.5420000000       76.6970000000
C                 5.4380000000       55.4370000000       77.2180000000
C                 6.3010000000       54.4860000000       78.0580000000
O                 6.2440000000       54.5000000000       79.2930000000
N                 7.0840000000       53.6460000000       77.3890000000
H                 3.5960000000       53.5150000000       77.0760000000
H                 4.0770000000       56.0140000000       78.6660000000
H                 5.4500000000       55.0870000000       76.1860000000
H                 5.8720000000       56.4350000000       77.2780000000
H                 7.6800000000       52.9910000000       77.8950000000
H                 7.0890000000       53.6560000000       76.3690000000
N                 1.9500000000       55.7020000000       76.4430000000
C                 0.8830000000       56.3900000000       75.7240000000
C                -0.0600000000       57.0930000000       76.7010000000
O                -0.7920000000       58.0010000000       76.3170000000
C                 0.0990000000       55.4040000000       74.8480000000
C                 1.0010000000       54.4190000000       74.1330000000
O                 1.7830000000       54.8540000000       73.2580000000
O                 0.9340000000       53.2130000000       74.4590000000
H                 1.7800000000       54.7040000000       76.5680000000
H                 1.3100000000       57.1310000000       75.0480000000
H                -0.5890000000       54.8380000000       75.4760000000
H                -0.4570000000       55.9620000000       74.0950000000
N                -0.0390000000       56.6800000000       77.9660000000
C                -0.9430000000       57.2630000000       78.9570000000
C                -0.3160000000       57.5240000000       80.3280000000
O                 0.5080000000       56.7410000000       80.8110000000
C                -2.1890000000       56.3910000000       79.1310000000
C                -3.1290000000       56.3900000000       77.9470000000
C                -4.4340000000       55.6880000000       78.2480000000
O                -5.3350000000       56.3370000000       78.8210000000
O                -4.5480000000       54.4880000000       77.9170000000
H                 0.5810000000       55.9560000000       78.3290000000
H                -1.1990000000       58.2540000000       78.5830000000
H                -1.8710000000       55.3620000000       79.2990000000
H                -2.7480000000       56.7540000000       79.9940000000
H                -3.3540000000       57.4200000000       77.6700000000
H                -2.6520000000       55.8750000000       77.1130000000
N                -0.7180000000       58.6280000000       80.9520000000
C                -0.2520000000       58.9140000000       82.2880000000
C                -1.0030000000       57.9930000000       83.1950000000
O                -2.0720000000       57.4920000000       82.8500000000
C                -0.5070000000       60.3590000000       82.7270000000
O                -1.8880000000       60.5350000000       83.0810000000
C                -0.1120000000       61.3230000000       81.6240000000
H                -1.3530000000       59.3230000000       80.5600000000
H                 0.8280000000       58.7800000000       82.3430000000
H                 0.0990000000       60.5870000000       83.6040000000
H                -2.0470000000       61.4600000000       83.3620000000
H                -0.2950000000       62.3490000000       81.9420000000
H                 0.9470000000       61.2090000000       81.3900000000
H                -0.6960000000       61.1220000000       80.7260000000
N                -4.6910000000       58.9850000000       83.9340000000
C                -5.6690000000       58.6060000000       82.9230000000
C                -6.0530000000       57.1610000000       83.0800000000
O                -7.2320000000       56.8420000000       83.1680000000
C                -5.0940000000       58.7930000000       81.5350000000
C                -4.6680000000       60.2030000000       81.2450000000
C                -3.7160000000       60.2530000000       80.0800000000
O                -3.1500000000       59.2340000000       79.6970000000
N                -3.5260000000       61.4320000000       79.5100000000
H                -3.8150000000       59.3420000000       83.5530000000
H                -6.5430000000       59.2460000000       83.0410000000
H                -4.2190000000       58.1520000000       81.4280000000
H                -5.8510000000       58.5160000000       80.8010000000
H                -5.5440000000       60.8030000000       81.0000000000
H                -4.1650000000       60.6170000000       82.1190000000
H                -4.0150000000       62.2540000000       79.8640000000
H                -2.8900000000       61.5190000000       78.7170000000
N                -5.0400000000       56.2970000000       83.1040000000
C                -5.2270000000       54.8570000000       83.2350000000
C                -5.9960000000       54.4770000000       84.5090000000
O                -6.9040000000       53.6480000000       84.4780000000
C                -3.8730000000       54.1600000000       83.2200000000
C                -2.9510000000       54.6190000000       82.1080000000
C                -1.4740000000       54.3140000000       82.4230000000
N                -1.2180000000       52.8820000000       82.6520000000
C                -0.0230000000       52.3470000000       82.9140000000
N                 1.0620000000       53.1120000000       82.9840000000
N                 0.0890000000       51.0390000000       83.1020000000
H                -4.0590000000       56.5670000000       83.0330000000
H                -5.8160000000       54.5170000000       82.3830000000
H                -3.3710000000       54.3540000000       84.1680000000
H                -4.0340000000       53.0890000000       83.0960000000
H                -3.2160000000       54.1030000000       81.1850000000
H                -3.0560000000       55.6960000000       81.9760000000
H                -0.8590000000       54.6350000000       81.5820000000
H                -1.1850000000       54.8550000000       83.3240000000
H                -2.0160000000       52.2490000000       82.6070000000
H                 0.9870000000       54.1190000000       82.8370000000
H                 1.9700000000       52.6920000000       83.1850000000
H                -0.7370000000       50.4430000000       83.0460000000
H                 1.0010000000       50.6290000000       83.3020000000
N                -9.7870000000       54.6790000000       84.5320000000
C               -10.5330000000       53.6240000000       83.8560000000
C               -10.8440000000       52.4050000000       84.7480000000
O               -11.6740000000       51.5560000000       84.4000000000
C                -9.7740000000       53.1930000000       82.6040000000
C                -9.3990000000       54.3670000000       81.7240000000
C                -8.3370000000       54.0080000000       80.6910000000
N                -7.9600000000       55.1840000000       79.9080000000
C                -8.2690000000       55.3710000000       78.6270000000
N                -8.9480000000       54.4410000000       77.9660000000
N                -7.8890000000       56.4850000000       78.0030000000
H                -8.7910000000       54.6810000000       84.3110000000
H               -11.4990000000       54.0220000000       83.5460000000
H                -8.8570000000       52.6850000000       82.9010000000
H               -10.4020000000       52.5190000000       82.0210000000
H               -10.2860000000       54.7110000000       81.1910000000
H                -9.0050000000       55.1690000000       82.3480000000
H                -7.4490000000       53.6300000000       81.1980000000
H                -8.7300000000       53.2510000000       80.0120000000
H                -7.4220000000       55.9130000000       80.3770000000
H                -9.2330000000       53.5840000000       78.4400000000
H                -9.1850000000       54.5840000000       76.9840000000
H                -7.3600000000       57.1970000000       78.5070000000
H                -8.1270000000       56.6260000000       77.0210000000
N                11.9910000000       54.1350000000       86.1390000000
C                12.3710000000       54.1910000000       84.7490000000
C                13.2540000000       55.4100000000       84.4490000000
O                14.0510000000       55.3940000000       83.5070000000
C                11.1480000000       54.1210000000       83.8640000000
C                10.7880000000       52.6910000000       83.5950000000
C                 9.6970000000       52.5900000000       82.5770000000
N                 8.4110000000       52.5060000000       83.2420000000
C                 7.9710000000       51.4090000000       83.8450000000
N                 8.7220000000       50.3130000000       83.8550000000
N                 6.7830000000       51.4090000000       84.4370000000
H                10.9880000000       54.1320000000       86.3270000000
H                12.9640000000       53.3130000000       84.4930000000
H                10.3080000000       54.6060000000       84.3610000000
H                11.3540000000       54.6150000000       82.9140000000
H                11.6620000000       52.1620000000       83.2160000000
H                10.4420000000       52.2250000000       84.5170000000
H                 9.7050000000       53.4740000000       81.9400000000
H                 9.8390000000       51.6940000000       81.9730000000
H                 7.8140000000       53.3330000000       83.2460000000
H                 9.6350000000       50.3160000000       83.4000000000
H                 8.3860000000       49.4690000000       84.3180000000
H                 6.2090000000       52.2520000000       84.4280000000
H                 6.4440000000       50.5660000000       84.9010000000
N                12.0640000000       44.4910000000       82.3890000000
C                11.9230000000       45.3530000000       81.2310000000
C                13.2470000000       45.9090000000       80.7630000000
O                13.4860000000       46.0730000000       79.5660000000
C                10.9760000000       46.4730000000       81.5840000000
C                 9.6830000000       45.9150000000       82.0740000000
C                 8.5330000000       46.7870000000       81.7090000000
O                 8.5740000000       47.9880000000       81.9560000000
N                 7.4930000000       46.2010000000       81.1080000000
H                11.4770000000       44.7720000000       83.1750000000
H                11.5140000000       44.7750000000       80.4020000000
H                11.4130000000       47.0880000000       82.3710000000
H                10.7820000000       47.0810000000       80.7000000000
H                 9.5230000000       44.9330000000       81.6280000000
H                 9.7170000000       45.8300000000       83.1600000000
H                 7.5110000000       45.1990000000       80.9190000000
H                 6.6810000000       46.7560000000       80.8380000000
N                -8.5758440655       51.6462023608       75.2920055949
C                -8.1554620702       51.9023253352       76.6670055949
C                -6.6876738720       52.2246090693       76.7020055949
O                -6.0946130754       52.4018205010       77.7630055949
C                -8.3776692228       50.6634512572       77.5390055949
C                -9.6899285641       50.7005514052       78.3000055949
O                -9.7391047881       51.1053756868       79.4680055949
N               -10.7604764738       50.2563080337       77.6470055949
H                -8.6920319802       50.6509589893       75.1000055949
H                -8.7504374925       52.7157976746       77.0830055949
H                -8.3837161213       49.7789777216       76.9020055949
H                -7.5696405510       50.5929979707       78.2670055949
H               -11.6722705174       50.2550344242       78.1040055949
H               -10.6688361483       49.9170337336       76.6900055949
N                -6.0970893733       52.2635314271       75.5230055949
C                -4.6895761659       52.5594158147       75.3980055949
C                -4.4911843666       54.0210404909       75.0350055949
O                -3.3895287618       54.5431639709       75.1660055949
C                -4.0782372956       51.6602857988       74.3340055949
C                -4.5843123603       50.2377380741       74.4320055949
O                -4.2535464830       49.5606413791       75.4310055949
O                -5.3277391823       49.8020850467       73.5220055949
H                -6.5700476296       52.0943436975       74.6350055949
H                -4.1499416857       52.3540901519       76.3230055949
H                -4.3360038635       52.0458210065       73.3480055949
H                -2.9953432890       51.6459132374       74.4570055949
N                -5.5538141975       54.6865116341       74.5840055949
C                -5.4420275160       56.0861318461       74.1810055949
C                -6.6138265293       56.9705164188       74.5920055949
O                -7.7721205729       56.5422922852       74.5810055949
C                -5.2384083151       56.1868106474       72.6780055949
C                -3.8980445466       55.6923887951       72.2060055949
C                -3.6613772510       56.0003085756       70.7460055949
O                -3.2115656713       57.1274050855       70.4420055949
O                -3.9343420432       55.1175196868       69.9030055949
H                -6.4884557192       54.2896650316       74.4880055949
H                -4.5935340520       56.4957656356       74.7300055949
H                -6.0048736129       55.5912538094       72.1810055949
H                -5.3288895828       57.2320924947       72.3830055949
H                -3.1132254197       56.1757353976       72.7870055949
H                -3.8477857108       54.6114396523       72.3380055949
N                -6.3071315731       58.2137276654       74.9510055949
C                -7.3602466303       59.1496788801       75.2890055949
C                -7.9749714545       59.5669442519       73.9900055949
O                -7.3423203138       59.4707281710       72.9410055949
C                -6.8622555586       60.4002247179       76.0390055949
O                -6.2453395517       61.3107545859       75.1280055949
C                -5.8764910625       60.0216189096       77.1220055949
H                -5.3608035179       58.5888159376       75.0140055949
H                -8.0739343599       58.6795354716       75.9660055949
H                -7.7135585305       60.8917247179       76.5090055949
H                -5.9310927272       62.1050460521       75.6090055949
H                -5.5338948730       60.9150129161       77.6430055949
H                -6.3503089932       59.3529421801       77.8410055949
H                -5.0156977095       59.5165567317       76.6830055949
N                -5.7443709859       61.9764575948       72.0420055949
C                -4.5387244945       61.5066985740       71.3690055949
C                -4.8536264183       60.9552724426       69.9940055949
O                -4.2022425362       61.3055024215       69.0060055949
C                -3.8905702709       60.4073346204       72.1870055949
C                -3.5860824672       60.7927229666       73.6090055949
C                -3.4637044305       59.5846879439       74.5160055949
O                -3.9166044676       58.4882420690       74.1810055949
N                -2.8457513291       59.7810141123       75.6730055949
H                -5.9512492077       61.4781340038       72.9070055949
H                -3.8563662013       62.3505778068       71.2730055949
H                -4.5634381831       59.5498932097       72.2140055949
H                -2.9503820357       60.1277884124       71.7120055949
H                -2.6417325968       61.3363849224       73.6380055949
H                -4.3910001759       61.4225645994       73.9890055949
H                -2.4851551397       60.7055850334       75.9080055949
H                -2.7313629829       59.0071405398       76.3280055949
H                 2.0310818831       49.4770061926       88.1182942357
H                -0.6376380367       57.7746146270       84.0998858849
H                -5.0348617144       59.6315917171       84.4571426887
H                -5.7610749808       54.9056091978       85.3814129704
H               -10.1167974406       55.4812603572       84.2919750692
H               -10.3720054695       52.2917864345       85.6223019225
H                12.3174993800       53.3826512287       86.5096338910
H                13.1869785333       56.2285060273       85.0195751539
H                11.8346106515       43.6495492091       82.1668714488
H                13.9510494615       46.1522615487       81.4301867615
H                -9.3640035601       52.0525781613       75.1381767292
H                -8.9075640831       59.9273800102       73.9711097418
H                -5.6523527497       62.8472158559       72.2501226170
H                -5.5981754917       60.2979712028       69.8773790214
