 458 
 
N                50.7898915834       13.3624540809        1.7348814257
C                50.6504765654       13.5350055617        3.1639733490
C                52.0107514487       13.3285697623        3.8194916711
O                52.5072438299       14.1524173909        4.5874103529
C                49.6090980785       12.5751974625        3.7466737501
C                48.2014824936       12.8967939414        3.2258342725
C                49.6781484805       12.5941233145        5.2729251750
C                47.6688214434       14.2685371638        3.6209434651
H                50.2155135551       12.6774609172        1.2560061158
H                50.3713203758       14.5791900644        3.3666745666
H                49.8805632168       11.5698203875        3.4029568783
H                48.2005323215       12.8172233682        2.1374359030
H                47.5301408422       12.1275131961        3.6110232473
H                48.8814708641       11.9846072823        5.6894289021
H                50.6282332713       12.1885782605        5.6144511044
H                49.5944508183       13.6079589824        5.6561734519
H                46.6777433270       14.4062823752        3.1993946815
H                47.6085166489       14.3676944608        4.7009345964
H                48.3028059227       15.0644858619        3.2361938376
N                52.6078526827       12.1663213621        3.5520870964
C                53.8747434050       11.8633218955        4.1732568722
C                54.9285766658       12.9198161560        3.8670062905
O                55.6383764003       13.3870454893        4.7679286920
C                54.3795058048       10.4945989882        3.7621020957
S                53.3353497491        9.1982819634        4.5194948150
H                52.2002308730       11.5053119433        2.8973781824
H                53.7350882371       11.8847478747        5.2668884595
H                54.3231995792       10.4024766245        2.6777840817
H                55.4033859246       10.3608172824        4.1073721916
H                54.3047578313        8.2997514946        4.6718688877
N                54.6875208498       15.6332732568        6.1883432338
C                55.0777700407       15.3553480303        7.5514485453
C                56.5864146679       15.1980098943        7.7107365241
O                57.1685071257       15.6636005495        8.6905969626
C                54.3393655114       14.1697947786        8.2113706906
C                52.8915048758       14.1394925690        7.7414566499
C                54.9988844266       12.8155176958        7.9802774133
H                54.1785114607       14.9552841645        5.6425273640
H                54.8078862598       16.2604054056        8.1098501161
H                54.3591148455       14.3757229336        9.2882352414
H                52.2851722514       13.5417558880        8.4151114806
H                52.4881849791       15.1440693825        7.6930425354
H                52.8162077408       13.7151346320        6.7447671527
H                54.3525997469       12.0304363949        8.3638936492
H                55.1481925499       12.6469009748        6.9171366706
H                55.9634862493       12.7520982273        8.4784823453
N                57.5501479272       17.4558086121       10.8199768205
C                58.4524425579       16.9255849504       11.8243136868
C                59.6098333200       17.9126542911       12.0633346098
O                59.8698408894       18.2759952086       13.2130244282
C                58.8940706698       15.5006637977       11.4900237503
C                57.7549619964       14.5085794757       11.6899170516
S                58.2061132869       12.8268522814       11.1029668243
C                58.8301409532       12.0734707276       12.6189943887
H                57.3641535938       16.8836017224       10.0004578386
H                57.9172034158       16.8977446168       12.7889196680
H                59.2027864439       15.4272343565       10.4484571311
H                59.7342589805       15.2220630063       12.1285400765
H                57.4599750527       14.4111877759       12.7338742104
H                56.8923704311       14.7912317798       11.0892219162
H                59.3649611351       11.1717213738       12.3378056653
H                59.5060390959       12.7518334042       13.1296606909
H                58.0111568824       11.7919394134       13.2787127202
N                58.2003390039       20.7207040004       14.3832598303
C                57.9600672480       20.3591526955       15.7631440300
C                59.2920947859       20.2832590460       16.5223990993
O                59.4238841489       20.8158178324       17.6185689903
C                57.1382325766       19.0643050381       15.8509229859
C                55.7549286346       19.3035705263       15.2260755195
C                57.0134958940       18.6077837868       17.3028008465
C                54.9005024441       18.0448154166       15.1447171596
H                57.8300797930       20.1277654771       13.6498723158
H                57.3875746541       21.1685538509       16.2412868818
H                57.6646625581       18.2890302876       15.2810533037
H                55.2256794099       20.0540621693       15.8155692831
H                55.8821227091       19.6852902634       14.2130427488
H                56.5445619441       17.6290829811       17.3533626942
H                57.9893472410       18.5243357194       17.7779247630
H                56.4103345202       19.3112164887       17.8723249329
H                53.9721896709       18.2602136941       14.6221371649
H                55.4249214992       17.2587755603       14.6020318447
H                54.6531641608       17.6619667993       16.1304507569
N                61.9057081563       12.7727134832       18.7841210844
C                61.4540196597       11.4305428154       19.0724341712
C                62.2422567023       10.8279691485       20.2267028480
O                63.3434851042       11.2305598234       20.5611002498
C                61.6024129929       10.5107192937       17.8466822165
C                60.2597327853       10.4936348057       17.0325252734
O                59.2772780782       10.0427450121       17.6528339065
O                60.3177400237       10.9072399611       15.8613690296
H                62.9018686564       12.9263269629       18.8670525721
H                60.3875012654       11.4787176229       19.3277931353
H                62.4127206162       10.8468815694       17.2000868114
H                61.7883522936        9.4792367852       18.1519012278
N                61.6239910189        9.7800217284       20.7933692957
C                62.1653662741        9.0215177196       21.9121562588
C                61.5477054687        7.6377991625       21.8611240923
O                60.3802184939        7.4015151404       22.1859161854
C                61.9010764978        9.7359763228       23.2655073315
C                60.5359950058       10.3569335432       23.3044925112
C                59.4541974792        9.6736008002       23.8468112744
C                60.3276702920       11.6078409424       22.7334966064
C                58.1833615811       10.2195566946       23.7915082737
C                59.0594609551       12.1547690802       22.6792765646
C                57.9839302852       11.4579624777       23.2024508680
H                60.6999558893        9.5336693505       20.4713136861
H                63.2475153007        8.9388596997       21.7672084223
H                61.9911099339        8.9828099688       24.0492117580
H                62.6678251190       10.5039113597       23.3807327164
H                59.6109434726        8.6932051622       24.2771894686
H                61.1630561933       12.1422975163       22.3052548441
H                57.3468412394        9.6612418141       24.1896464701
H                58.9149018382       13.1173290315       22.2127030034
H                56.9893373429       11.8707873802       23.1387602931
N                57.8693817832        0.2197251647       18.9905019267
C                56.3998012901        0.1626994709       18.9475202962
C                55.7403734590        1.4820098296       19.2696913596
O                55.0703835079        2.1625559177       18.3987184348
C                55.9014430364       -0.9097952329       19.9093935035
C                54.4026456314       -0.8859060353       19.9918657139
C                53.6043133983       -0.9171432979       18.8531661744
C                53.7764716901       -0.9036998814       21.2354940176
C                52.2243598037       -0.9433294409       18.9507067196
C                52.3988731780       -0.9415527330       21.3384465567
C                51.6160259160       -0.9577316305       20.1984520277
H                58.2792019418       -0.2263702504       19.8135501560
H                56.1240447137       -0.1068588909       17.9077059285
H                56.2477808170       -1.9040112927       19.5871704862
H                56.3431577355       -0.7230116966       20.8927431435
H                54.0622531434       -0.9289631681       17.8667624295
H                54.3967967330       -0.8892910936       22.1190576299
H                51.6387847647       -0.9797546216       18.0394124610
H                51.9422069726       -0.9716207691       22.3144063048
H                50.5410658574       -1.0052922929       20.2710973433
N                56.0114537407        1.9968597512       20.5294896417
C                55.3811900155        3.2846693908       20.7740317024
C                55.7426768365        4.3174207755       19.7184778820
O                54.9035686568        5.1479738725       19.3318735390
C                55.6563560329        3.8203917120       22.1975059799
C                54.4153817446        4.5452146994       22.7353142123
C                56.8515048018        4.7667324528       22.2335204848
C                53.3376577481        3.5975183440       23.2442520171
H                57.0527957223        2.1032543305       20.6847055993
H                54.2981522248        3.1081985911       20.6706694543
H                55.8836076192        2.9515282038       22.8268747067
H                54.7337877682        5.2026484800       23.5464204116
H                54.0251523365        5.1684402350       21.9273229169
H                57.0727434013        5.0682984182       23.2545117936
H                57.7407976686        4.2924869842       21.8295051479
H                56.6447345515        5.6491824453       21.6315234234
H                52.4926707392        4.1680107869       23.6169780784
H                52.9986094230        2.9427554406       22.4440805212
H                53.7402050500        2.9733802391       24.0375326643
N                57.0077906045        4.3710103657       19.2830669890
C                57.3759100376        5.3696415895       18.3105290702
C                56.3343447159        5.4454938890       17.2111985321
O                55.8707428662        6.5132593918       16.7891233331
C                58.7086117169        5.0766872644       17.6302083206
C                59.1571332107        6.2672030088       16.7850076308
C                60.5456624389        6.0338063621       16.2234391505
O                61.5344850969        5.8974533249       16.9351498159
N                60.6233534454        5.9738671923       14.8896762073
H                57.6651951281        3.6535729346       19.5532241647
H                57.4049725849        6.3570430453       18.8113284750
H                59.4582065420        4.8456844218       18.3827093210
H                58.5867070825        4.1854190979       17.0090941177
H                58.4267522350        6.4573169595       15.9956397956
H                59.1887211431        7.1621642597       17.4142275601
H                59.8071468174        6.1618545948       14.3327596225
H                61.5250201172        5.8325640199       14.4579782659
N                56.0864820409        4.2539935529       16.6300039095
C                55.2082826015        4.1604221957       15.5043294049
C                53.8043634259        4.6740827890       15.7884574331
O                53.1311915518        5.1529535059       14.8642193407
C                55.1403024204        2.7067051725       15.0265614777
O                54.3969011614        1.8763667267       15.8658252632
H                56.2812018701        3.4065379037       17.1452416525
H                55.6230047556        4.7808415546       14.6926147705
H                54.6526810299        2.6639435023       14.0432724853
H                56.1778265547        2.3443745817       14.9109012941
H                54.7406691064        1.9439913273       16.8000016617
N                53.3678221772        4.5525546828       17.0384976983
C                52.0624030449        5.0041573475       17.4678554105
C                52.0563034107        6.5274998564       17.6189050193
O                51.1279150747        7.2308840135       17.2182533554
C                51.6417896204        4.3049243016       18.7693101047
C                50.2235366045        4.7360108707       19.1340890472
C                51.7183849365        2.7867769085       18.6133529175
H                53.9898538529        4.1879907331       17.7489670890
H                51.3517591570        4.7595735320       16.6673300051
H                52.3401955437        4.6265532232       19.5495791717
H                49.9355139169        4.2999374419       20.0846763678
H                50.1602779152        5.8189072716       19.1903690791
H                49.5311399791        4.4026575619       18.3629131174
H                51.3047728281        2.3013423533       19.4930913568
H                51.1601276802        2.4641274951       17.7347460504
H                52.7408159757        2.4451881324       18.4715138695
N                53.0958726713        7.0383390100       18.2857193725
C                53.3209118807        8.4689072626       18.2970953185
C                53.2121992961        9.0025065450       16.8692500959
O                52.5252823281        9.9838904656       16.5849687505
C                54.6746351415        8.7842451284       18.9516489950
C                54.6335354610        8.3842559116       20.4332526145
C                55.0183233032       10.2576012849       18.7578914532
C                55.9861875147        8.5081488984       21.1237058751
H                53.8855967799        6.4395333518       18.4941778824
H                52.5073088988        8.9400273893       18.8679830229
H                55.4357118981        8.1903037041       18.4300304474
H                53.9017968475        9.0086016774       20.9474375523
H                54.3051098350        7.3455002988       20.4923469695
H                56.0081162775       10.4660175827       19.1530697025
H                55.0424456201       10.4954281789       17.6943017696
H                54.2813148841       10.8937579823       19.2400983072
H                55.9337684072        8.0772593140       22.1188540745
H                56.7485414111        7.9771634168       20.5551777124
H                56.2993391142        9.5445547922       21.2026654845
N                53.8684456653        8.2991436583       15.9425569358
C                53.8185308620        8.7177763532       14.5652994739
C                52.3928988224        8.6538670556       14.0457785737
O                51.9256946881        9.5494732891       13.3275681757
C                54.7432849932        7.8867588492       13.6952967232
C                56.2544703438        8.2151040995       13.9965313988
O                56.5153284836        9.4015883634       14.2439660347
O                57.0530545274        7.2636253934       13.9107816462
H                54.5387769441        7.5844519432       16.1926161605
H                54.1601530564        9.7657496204       14.4906422193
H                54.5556424442        6.8190092807       13.8230400633
H                54.5718957630        8.1421526043       12.6436015608
N                51.6540495460        7.6005198721       14.4474287917
C                50.2888938585        7.4561352846       13.9862516674
C                49.5065077407        8.7181884571       14.3400091952
O                48.6786685667        9.2151420997       13.5747146117
C                49.6605794211        6.2306683551       14.6584271286
C                48.2106609614        6.0525735569       14.3182518627
C                47.8321586420        5.2793762254       13.2278969860
C                47.2228998448        6.6445499784       15.0970076596
C                46.4938352625        5.1019266502       12.9187807476
C                45.8863712622        6.4621352185       14.7952817967
C                45.5191777876        5.6873722398       13.7088506442
H                52.1356428951        6.7543063004       14.7340759910
H                50.2504968188        7.3320634834       12.8874804050
H                50.2440215627        5.3636892887       14.3293971737
H                49.7799159787        6.3549000553       15.7364287042
H                48.5998904603        4.8065098797       12.6173448703
H                47.5160150014        7.2417213344       15.9473723149
H                46.2300117908        4.5231710479       12.0422004766
H                45.1291531866        6.9280861697       15.4043707971
H                44.4802463890        5.5390899639       13.4609163931
N                49.7395964480        9.1976901656       15.5536470511
C                49.0650904987       10.3802694994       16.0466937709
C                49.4263116933       11.6051536750       15.2081938992
O                48.5628500900       12.3765104702       14.8026038706
C                49.3791600412       10.5821327630       17.5391835160
C                48.7434450788        9.4341134234       18.3364125302
C                48.8846077824       11.9473936222       18.0107963257
C                49.0588768032        9.4871653411       19.8272432098
H                50.4552172149        8.7579831840       16.1198389000
H                47.9853229351       10.2282163190       15.9061559987
H                50.4686770771       10.5346806904       17.6403558129
H                47.6612948729        9.4585466269       18.1877754482
H                49.1179922379        8.4912886628       17.9309822387
H                49.1714033939       12.1019331094       19.0447773513
H                49.3293673141       12.7335434176       17.4074092000
H                47.8044452146       12.0093927863       17.9146420196
H                48.6991387432        8.5798999385       20.3034963877
H                50.1343456409        9.5459143963       19.9764506095
H                48.5831975217       10.3431153640       20.2938512397
N                50.7282222371       11.8435288261       15.0189032432
C                51.1035286430       13.0557863879       14.3289359146
C                50.7994776390       13.0068751337       12.8325798243
O                50.6476395636       14.0487845466       12.2005959648
C                52.5529490062       13.5048876807       14.5811546477
C                53.5319182899       12.6980457244       13.7265472821
C                52.8685418865       13.4376258444       16.0727179649
C                54.9816148109       13.1265290244       13.9105550045
H                51.4246339121       11.1620476414       15.2851588995
H                50.4437639100       13.8408666518       14.7315802016
H                52.6051895559       14.5475007208       14.2464716832
H                53.4369819508       11.6316320215       13.9502174785
H                53.2624804697       12.8210384356       12.6724127713
H                53.8067766817       13.9404246241       16.2829183950
H                52.0747700666       13.9134674291       16.6409138531
H                52.9581525950       12.4024362069       16.3945013194
H                55.6050363020       12.6153472795       13.1793729999
H                55.0797876466       14.2005256553       13.7705626297
H                55.3521829629       12.8502314739       14.8947442992
N                50.6704073951       11.8038069778       12.2732449838
C                50.2782214531       11.6933105499       10.8856586716
C                48.7844688387       12.0443890386       10.7919343951
O                48.3705705088       12.7295079246        9.8632724470
C                50.6905937238       10.3385772163       10.2849215272
C                50.9149420715       10.4256935153        8.7714666001
C                49.6854796455        9.2429250881       10.6103867783
C                51.5917450490        9.1826825539        8.2021565334
H                50.9318900310       10.9610073675       12.7626244713
H                50.8012343397       12.4881471062       10.3286280892
H                51.6464696294       10.0729350311       10.7600638439
H                49.9532017441       10.5692161730        8.2757822268
H                51.5421877198       11.2922400596        8.5506449757
H                50.0989996324        8.2655620107       10.3652316759
H                49.4450537469        9.2265771912       11.6681762127
H                48.7608113460        9.3654999075       10.0452861934
H                51.7933859843        9.3158100125        7.1424943597
H                52.5275581206        8.9860774403        8.7254657108
H                50.9659658455        8.2953721496        8.2995789770
N                48.0209534927       11.7112883643       11.8433963547
C                46.6212243948       12.1077609989       11.8464344911
C                46.5705216014       13.6355820899       11.8127920273
O                45.8459769803       14.2774058910       11.0541857302
C                45.9421668865       11.5710056908       13.0975804363
H                48.2717324320       10.9351320920       12.4451359406
H                46.1205756432       11.7300018949       10.9457076855
H                44.8926802709       11.8473912264       13.0898880901
H                46.0156219575       10.4878339292       13.0955804517
H                46.4341107717       11.9716644877       13.9791214312
N                47.3536327005       14.2142087540       12.7271642420
C                47.4583209977       15.6532990271       12.8420287547
C                47.7564621947       16.2960193548       11.4896650216
O                47.1229602178       17.2654931567       11.0832393969
C                48.5756205357       16.0433681055       13.8169736184
C                48.9396429061       17.4936289065       13.6325582047
C                48.0280813381       18.5034186579       13.9145708514
C                50.1891188384       17.8352818854       13.1344539980
C                48.3596038279       19.8271581115       13.6895061669
C                50.5267522229       19.1609481010       12.9264437856
C                49.6094995287       20.1601438627       13.1965572198
H                47.9039222456       13.6238492285       13.3439020319
H                46.4875121616       16.0495314480       13.1672221073
H                48.2498919762       15.8434382993       14.8386058732
H                49.4413648385       15.4219547017       13.5859363497
H                47.0546887465       18.2440339528       14.3017698985
H                50.8947299662       17.0514527500       12.8978320698
H                47.6426829386       20.6014714475       13.9070419035
H                51.5079618246       19.4039342582       12.5486732691
H                49.8773392323       21.1895399307       13.0201673645
N                48.8022168444       15.8110393767       10.8239756429
C                49.1680616985       16.4018368651        9.5576868745
C                47.9696868829       16.4923182410        8.6221339488
O                47.7547089627       17.4855967987        7.9327502560
C                50.2592640362       15.5897157684        8.8906105963
H                49.3335894960       15.0103585721       11.1482423811
H                49.5245582408       17.4280582490        9.7270385267
H                50.5309836782       16.0525971707        7.9455778214
H                51.1286831598       15.5452672553        9.5401631381
H                49.9146253437       14.5769624596        8.6870305046
N                47.1737903987       15.4148282456        8.5807412425
C                46.0208233798       15.4389746203        7.7082835520
C                45.0880141671       16.5804436614        8.1178734216
O                44.5889085002       17.3355433493        7.2822883228
C                45.2886578223       14.1037185476        7.7497219058
C                44.0833594638       14.0506327229        6.8085845466
C                44.5019027253       14.0418115072        5.3418768273
C                43.2454221649       12.8140315107        7.1062025018
H                47.4008834102       14.5577297283        9.0663613265
H                46.3510777605       15.6548025740        6.6807783315
H                45.9931471713       13.3126240805        7.4776028291
H                44.9614137771       13.9101400784        8.7740216962
H                43.4553289984       14.9333845302        6.9755264744
H                43.6288525204       13.9341251805        4.6986419911
H                45.0194405651       14.9569575573        5.0661827919
H                45.1603058498       13.1974903769        5.1357789104
H                42.4148202899       12.7571554352        6.4056940293
H                43.8315752109       11.9011836096        6.9804873828
H                42.8590803720       12.8337213756        8.1226589113
N                45.0345158485        6.8862347722        4.0848562523
C                46.1022055331        7.5057741350        4.8349190490
C                46.3260252649        6.8608922238        6.1860136301
O                47.4395212129        6.3401678692        6.5247773374
C                45.8163324641        9.0024321543        4.9965640081
C                46.9029338511        9.6164073629        5.8657836682
C                45.7753397055        9.6797553746        3.6370297785
H                44.1577931339        7.3847695750        4.0626859771
H                47.0475491460        7.3762224596        4.2683212423
H                44.8419758868        9.0900701769        5.5016611998
H                46.7539955412       10.6838458624        6.0255932186
H                46.9501892492        9.1206357563        6.8360017022
H                47.8757568905        9.4729135115        5.3904627410
H                45.6819937225       10.7579088159        3.7426881673
H                46.7059202303        9.4845907415        3.0983469809
H                44.9459680758        9.2966188621        3.0488187771
N                45.2850987809        7.0477429754        7.0675938539
C                45.3120609661        6.4910539113        8.3881052641
C                45.2909341548        4.9685470927        8.5212741957
O                45.9119084376        4.4363690535        9.5200627878
C                44.1075473257        7.0315412634        9.1809116081
C                44.1081408126        8.5364450621        9.3345454155
S                45.6557474683        9.2532106163       10.0207665313
C                45.9322767336        8.1953486607       11.4674027964
H                44.3673229144        7.0443535216        6.6379795040
H                46.2681919070        6.8069935582        8.8560094752
H                43.2094884529        6.7425065288        8.6266940504
H                44.1121851676        6.5258188214       10.1483302292
H                44.0293866567        8.9865490648        8.3449411734
H                43.3018831160        8.8857857115        9.9792056174
H                46.8228897447        8.5716840693       11.9678186498
H                45.0668325715        8.2606796475       12.1172336601
H                46.1364344767        7.1663608233       11.1665662899
N                49.1090599222        4.2461490674        7.7772064115
C                49.5706032442        4.4588041117        9.1362965743
C                49.3196084059        3.3047286125       10.0748978925
O                50.2463528497        2.9048796124       10.8514880275
C                48.9212718259        5.7098994593        9.7018937990
H                48.2525583720        4.7377256161        7.5680499841
H                50.6694271017        4.6192592323        9.0995801415
H                49.4072129871        5.9987594660       10.6356418537
H                48.9846615097        6.5395118122        8.9946516100
H                47.8688132600        5.5021881398        9.8979579702
N                48.0855427738        2.7411338623       10.0334163240
C                47.7213820165        1.7712651028       11.0309709520
C                48.4715396228        0.4801981405       10.7925871668
O                48.9282674516       -0.2024487082       11.7353642985
C                46.2049434912        1.5101214593       10.9977317120
C                45.7328762421        0.5762472630       12.0647362564
C                45.5977562377        0.9933176226       13.3911567445
C                45.3956772579       -0.7375283064       11.7419848206
C                45.1254664689        0.1238103550       14.3562035853
C                44.9193107849       -1.6072220060       12.7037553501
C                44.7782596630       -1.1779250499       14.0171211029
H                47.3265863061        3.3106908368        9.6613464112
H                48.0159264143        2.1497845354       12.0420128171
H                45.7150365782        2.4894384545       11.0800565375
H                45.9785368185        1.1433808373        9.9847071623
H                45.8821677658        2.0131945833       13.6284860064
H                45.5086514177       -1.0315046811       10.7010980463
H                45.0332319196        0.4665932152       15.3754077688
H                44.6471400851       -2.6104120987       12.4073212127
H                44.3957127946       -1.8547063203       14.7615921860
N                51.7073851231        0.6940874453       12.4340292319
C                51.7952631022        0.4266558635       13.8558525212
C                51.6717776556       -1.0688036437       14.1059485363
O                52.3359436681       -1.6193912185       14.9918702094
C                50.8611549803        1.2229517652       14.7715951039
C                49.3894337981        0.8272573266       14.6745893955
C                51.0820953584        2.7009900945       14.5065814549
C                48.4664833535        1.7062706708       15.5133488144
H                51.0406070295        1.3384484431       12.0488404640
H                52.8236237392        0.6966626851       14.1684660792
H                51.2112768175        1.0165008460       15.7960921476
H                49.0747307746        0.8919361166       13.6320735244
H                49.2913811385       -0.2202933114       14.9762042677
H                50.5597009153        3.3238158478       15.2295151724
H                52.1411359973        2.9512833099       14.5606602862
H                50.7397468343        3.0062534912       13.5105006960
H                47.4658184851        1.2836231253       15.5080015844
H                48.8555965361        1.8011380994       16.5237995683
H                48.3926267225        2.7055811042       15.0770150988
H                50.6021289242       14.1381407344        1.3188821476
H                55.0536899569       13.2441596304        2.9293773794
H                54.1531570505       16.3572462276        6.1704975745
H                57.1147097741       14.7119882049        7.0145417251
H                56.7435833619       17.6059735888       11.1899823363
H                60.1438068203       18.2538572351       11.2897372649
H                57.8458262107       21.5314732299       14.2190223922
H                60.0678123757       19.7942137101       16.1235295965
H                61.6865451035       12.9882507696       17.9382421129
H                62.0923969068        6.8581978959       21.5520397958
H                58.2074486185       -0.1962394689       18.2675328828
H                44.8709931808       16.7269690626        9.0829807723
