 545 
 
N                21.0754269077       70.4470328405      -13.4282038331
C                21.5975746429       70.9200266342      -14.7030189110
C                23.0288738057       71.5038276926      -14.5269919683
O                23.9199782962       71.3010022958      -15.3411047654
C                20.5635000970       71.9096149497      -15.2710136049
C                20.7509041040       72.3307204033      -16.7338561862
C                20.2021926263       71.4018075049      -17.8860591417
O                19.0990117025       71.7226201615      -18.3816894648
O                20.9419281471       70.4784182606      -18.2855561147
H                20.0698810368       70.4081078457      -13.3401048608
H                21.7288200098       70.0778068697      -15.3991255424
H                19.5667774908       71.4745107333      -15.1493711592
H                20.6399007132       72.8185151806      -14.6715530015
H                20.2577099051       73.2947639560      -16.8803218198
H                21.8217257943       72.4392339144      -16.9250714180
N                23.2407632679       72.2767410075      -13.4486308277
C                24.5492549573       72.7730067138      -13.1197032574
C                25.4841384038       71.8971887045      -12.3340458657
O                26.5672233050       71.6649045804      -12.8797782269
C                24.4959843394       74.0967573632      -12.3501017828
C                25.7253743666       74.3698643085      -11.4700600949
C                24.3211530585       75.1779595269      -13.4045820254
H                22.4812311443       72.5178929099      -12.8285665527
H                25.0636498550       72.9194019499      -14.0803764692
H                23.6067463972       74.0741244943      -11.7135081607
H                25.7605248131       75.4382800220      -11.2645575259
H                25.6668416474       73.8476859488      -10.5234052084
H                26.6402245156       74.0869750491      -11.9825998904
H                24.1123981443       76.1395418320      -12.9395162922
H                25.2195946164       75.2663461290      -14.0097139615
H                23.4817741507       74.9287781908      -14.0499209074
N                25.3196988869       71.6402824775      -11.0324880364
C                26.4534079398       70.9628173729      -10.4151204668
C                26.8328191503       69.7417472646      -11.3019320707
O                28.0006669621       69.3683461729      -11.3773466987
C                26.2961780953       70.6375884295       -8.9309546413
C                25.0082461168       69.8801896242       -8.5838276339
C                24.7300494766       68.4865841452       -9.2950303545
O                25.6976724411       67.7393762707       -9.5443511646
O                23.5241690719       68.2043632022       -9.5122769849
H                24.4103143241       71.6522646978      -10.5878647989
H                27.3207725780       71.6335399517      -10.5188399840
H                27.1574263580       70.0324566973       -8.6435796126
H                26.3077600033       71.5689859339       -8.3615492307
H                25.0105977711       69.6510469200       -7.5142269195
H                24.1298899101       70.4954331424       -8.7765074313
N                25.8493160072       69.2197138370      -12.0441580381
C                25.9909198191       68.1667103657      -13.0309840996
C                27.1952251013       68.3995894057      -13.9214832370
O                27.9871819709       67.5073375474      -14.1980790408
C                24.7471014697       68.1784105578      -13.9365561059
C                24.8327535567       67.2556894673      -15.1435501033
C                24.0468000844       67.6908851621      -16.4563408222
O                23.0580363238       68.4392633005      -16.3687391736
O                24.5164104430       67.1381703578      -17.4785861143
H                24.8950597980       69.5109621356      -11.8878189362
H                26.1036633163       67.2088904682      -12.5110581271
H                23.8673990920       67.9328347608      -13.3375711610
H                24.5914098845       69.1969038155      -14.2982902576
H                25.8657505403       67.1284652865      -15.4568625372
H                24.3849135870       66.2882000950      -14.8992317976
N                27.2329627353       69.6111972467      -14.4565150669
C                28.3390110243       70.0549688985      -15.2515280329
C                29.6121755495       70.0066707380      -14.4102501977
O                30.5251681560       69.2445055885      -14.7231685115
C                28.0525684147       71.4393091732      -15.8165421324
C                29.2403215704       71.9938795946      -16.6079962369
C                28.8747659815       72.8711542327      -17.8118970786
N                28.4581753203       72.0500963349      -18.9441346974
C                28.6816772483       72.2397456569      -20.2469324818
N                29.5458679600       73.1494239555      -20.6994965031
N                28.0896231186       71.4245340611      -21.1284012121
H                26.6183019760       70.3326847393      -14.1042347134
H                28.4839375822       69.3309097790      -16.0672112920
H                27.1551938744       71.3579544443      -16.4363188962
H                27.8060663672       72.1053055692      -14.9886634387
H                29.8692677522       72.5873591858      -15.9455378484
H                29.8510363149       71.1648427588      -16.9740997580
H                28.0536140183       73.5436749816      -17.5497280388
H                29.7451917768       73.4660258450      -18.0907695735
H                27.7523036377       71.3648257278      -18.7050925721
H                29.9797899305       73.8346209638      -20.0997493078
H                29.5887407218       73.3306638230      -21.6890835302
H                27.3653760515       70.7918173114      -20.8266531095
H                28.1503179487       71.5658966729      -22.1284420348
N                29.7766798701       70.8439494325      -13.3841662021
C                31.1281820075       70.8754676895      -12.8643804050
C                31.5589021852       69.5527979024      -12.2216076033
O                32.7509975818       69.2855396857      -12.1137966444
C                31.4329003631       72.1239975715      -12.0409820903
O                30.4923823054       72.1481614058      -10.9957551530
C                31.3861318693       73.3897079656      -12.9089697198
H                29.0275407023       71.3589564567      -12.9492236618
H                31.7888442227       70.9301272269      -13.7474747299
H                32.4485766834       71.9964543235      -11.6312943951
H                30.6778685316       72.9007241916      -10.4206709432
H                31.6236775961       74.2595942926      -12.3025000436
H                32.1131943134       73.3246693167      -13.7125350347
H                30.3916828912       73.5130605392      -13.3282424888
N                30.6117029869       68.6698595095      -11.9415516895
C                30.9942688277       67.3020357392      -11.6911327734
C                31.9143741422       66.8283908469      -12.7995341115
O                32.9723998349       66.2386253667      -12.6119493367
C                29.8038921557       66.3496999141      -11.7713194362
C                30.2917514315       64.9003199429      -11.9381836854
C                29.1412763758       63.9778216235      -12.3102221734
N                28.5159068404       64.3962705323      -13.5551531351
C                27.2414627798       64.7277591113      -13.7455001026
N                26.4229920734       64.9414088725      -12.7165994186
N                26.7236111863       64.6993217054      -14.9769600962
H                29.6390323690       68.9366577290      -11.8635044458
H                31.5189350574       67.2157804586      -10.7307103270
H                29.1978177690       66.4469043229      -10.8692124324
H                29.1828340514       66.6389672358      -12.6196365699
H                31.0516849139       64.8217058152      -12.7090636051
H                30.7349908107       64.5654173917      -11.0005310784
H                29.5087980003       62.9574327891      -12.4471527784
H                28.4056618028       63.9618671530      -11.5077199004
H                29.1092321992       64.3253883029      -14.3693760413
H                26.7509755477       64.9988097823      -11.7657009614
H                25.4362541578       65.0705820031      -12.8677535004
H                27.2980221215       64.7128414566      -15.8022935296
H                25.7629264946       64.9618808789      -15.1252691053
N                31.3504755299       66.8926800830      -14.0014875884
C                32.1085788401       66.4150557282      -15.1185686274
C                33.5541390999       66.9197668466      -15.0270035870
O                34.4632381808       66.1020016930      -15.1291797178
C                31.4428228954       66.7296819147      -16.4567427035
C                31.0150787757       65.4655791936      -17.2066917430
C                29.5717318330       65.0316910216      -16.9471009334
C                29.4036405307       63.5046532098      -16.9489403661
N                29.8390627408       62.8501012505      -18.2138759450
H                30.5621590836       67.5026931981      -14.1767663798
H                32.2159515322       65.3277024137      -14.9940629225
H                30.5896238985       67.3856155494      -16.2920714921
H                32.1529823308       67.2839481131      -17.0712662077
H                31.1206614850       65.6445942700      -18.2772132511
H                31.6976943212       64.6597029282      -16.9245220289
H                29.2511703392       65.4495966430      -15.9925070430
H                28.9222115683       65.4587852577      -17.7133474803
H                29.9845099450       63.0567029674      -16.1370460159
H                28.3501548717       63.2477437072      -16.8215848807
H                29.7190343194       61.8355767919      -18.1331173441
H                29.2858276042       63.1489483911      -19.1055074013
H                30.8242067491       63.0505673959      -18.4142078395
N                33.8269647525       68.2172946050      -14.8659444677
C                35.2192432437       68.6402116209      -14.6729903340
C                36.0806841897       67.5212779206      -14.0726025742
O                37.1103276785       67.1270001730      -14.6036493642
C                35.3588445797       69.8029215338      -13.6762630236
C                35.4772817209       71.1967710790      -14.2716534224
C                34.4493335115       71.4286989830      -15.3676263846
C                35.3243635973       72.1917649469      -13.1190805887
H                33.0898931866       68.8840835278      -14.6831950963
H                35.6630140192       68.8822241595      -15.6451637978
H                34.5025157521       69.7673578502      -13.0033292014
H                36.2520053542       69.6358221626      -13.0707832557
H                36.4694041129       71.3105651059      -14.7115697428
H                34.5356864042       72.4414492672      -15.7553804396
H                34.5986274372       70.7432508086      -16.1938713039
H                33.4383771500       71.2953214702      -14.9853720116
H                35.3281747939       73.2135519398      -13.4906479001
H                34.3881477409       72.0158066879      -12.5955036513
H                36.1398472374       72.0770130509      -12.4075348094
N                35.7125464950       67.1652149925      -12.8304159235
C                36.4253912318       66.1949976260      -12.0215576301
C                36.7848113020       64.9441132149      -12.8360740339
O                37.9333124125       64.5157979376      -12.8490480811
C                35.5494740119       65.7819184749      -10.8256429461
C                35.5870632919       66.7856996222       -9.6594967671
C                36.7390793014       66.4631632318       -8.7193924017
O                37.8974690376       66.3761494522       -9.1090815041
N                36.4027754282       66.3044441063       -7.4260853010
H                34.7972789701       67.4374191786      -12.4972889423
H                37.3764208517       66.6161981954      -11.6709186113
H                34.5263687686       65.6771330157      -11.1839255081
H                35.8964475314       64.8078733072      -10.4694836520
H                35.7375384156       67.7923009739      -10.0526640969
H                34.6423209745       66.7585625592       -9.1207467076
H                35.4408673026       66.2806143164       -7.1357063479
H                37.1033937649       65.9716650113       -6.7815395008
N                35.7361585400       64.3630123905      -13.4352985970
C                35.7250381625       63.1238134064      -14.2012930207
C                36.8751008660       62.9901280957      -15.1945619143
O                37.2914398661       61.9006337740      -15.5790433698
C                34.4131822812       63.0609241635      -14.9964041068
C                33.2512181538       62.7044293137      -14.0770671365
C                33.3630285137       61.2196283222      -13.7335556908
O                34.1357586422       60.4609061271      -14.2978602214
N                32.4769430820       60.7971022067      -12.8125731126
H                34.8767414813       64.9014138973      -13.4705095416
H                35.7994763577       62.2618261927      -13.5233897681
H                34.2742980710       64.0178449091      -15.4941441937
H                34.5199159929       62.2723100736      -15.7439203698
H                33.2716374478       63.2997963249      -13.1650579046
H                32.2991082637       62.8510443738      -14.5871749893
H                31.9862541261       61.4545027525      -12.2302982190
H                32.5461343707       59.8424239840      -12.4953127440
N                37.2704213227       64.1667939574      -15.6576339580
C                38.2944263604       64.4337000918      -16.6320284941
C                39.5987386260       64.6908612204      -15.8795401545
O                40.5539405978       63.9365496092      -16.0688865777
C                37.8914979565       65.6488010906      -17.5028575319
C                36.6936072405       65.4040054725      -18.4147612019
C                36.8670373832       65.0285418459      -19.7500741460
C                35.3731502090       65.5520192390      -17.9757439670
C                35.7980714315       64.8149662505      -20.6114466656
C                34.2906674130       65.3182455181      -18.8231270513
C                34.4847283185       64.9503229789      -20.1606474755
O                33.4676952972       64.7005116588      -21.0427669391
H                36.8300933603       64.9988903855      -15.2805977711
H                38.4430593462       63.5356870105      -17.2422184133
H                37.6807937391       66.4855021062      -16.8339894597
H                38.7582541462       65.9024996816      -18.1137153668
H                37.8687550157       64.8974703940      -20.1318885557
H                35.1977923485       65.8289397568      -16.9516824881
H                35.9739174036       64.5107775155      -21.6310154937
H                33.2916371113       65.4076616900      -18.4312590124
H                32.6125270428       64.7614387041      -20.5948352370
N                39.6354800441       65.6993965044      -15.0116221781
C                40.7985653281       65.8967017703      -14.1500158697
C                41.3927205634       64.4884926559      -13.9402155012
O                42.5685341109       64.2375717663      -14.1542093988
C                40.4119891776       66.5969263538      -12.8326875369
C                41.6457718891       67.0931472780      -12.0720679419
C                41.3240548062       68.1539169022      -11.0246805862
N                40.6638964505       67.5712730998       -9.8686488182
C                40.4369424617       68.2027400856       -8.7121641427
N                39.9970941968       67.4790240236       -7.6683665695
N                40.7608922607       69.4731034222       -8.5002154323
H                38.8298982586       66.3014170178      -14.8627754369
H                41.5413152897       66.5028101006      -14.6815662754
H                39.7752056664       67.4413027205      -13.1007584851
H                39.8235935330       65.9097117538      -12.2254110550
H                42.1529233273       66.2487912768      -11.6046219023
H                42.3390805022       67.5299517217      -12.7915278235
H                42.2479427611       68.6334283381      -10.6891097260
H                40.6892350242       68.9309455507      -11.4661830869
H                40.2365235651       66.6641524380       -9.9884358736
H                39.5560015808       66.5902309063       -7.8704116489
H                39.7180128278       67.9669759215       -6.8334848545
H                40.9275625574       70.1883397784       -9.2269388979
H                40.6156451174       69.8561443884       -7.5815630336
N                40.4589209473       63.6340895987      -13.4950280328
C                40.5933391888       62.2158227088      -13.3232286257
C                40.7773203374       61.3919560220      -14.6177221404
O                41.9275122996       60.9865839437      -14.8164627226
C                39.4791721687       61.7566680361      -12.3932826590
C                39.6101506689       62.4775456750      -11.0536481326
C                38.9755812580       61.7242791740       -9.8348809427
O                38.9295707474       62.3910824832       -8.7778215954
O                38.5775892615       60.5494210573       -9.9845462025
H                39.5173637195       63.9863865351      -13.3765420990
H                41.5572107019       62.0405796004      -12.8170719451
H                38.5044571913       61.9573977055      -12.8398287334
H                39.5502404359       60.6787538917      -12.2230454692
H                40.6660632074       62.6040364238      -10.8016521281
H                39.1513551887       63.4642718727      -11.0913779586
N                39.7838362073       61.0250692301      -15.4410950771
C                40.1373978581       60.0400369385      -16.4691248620
C                41.2901042007       60.5642865702      -17.3420708958
O                42.0924842358       59.7537397632      -17.7971465330
C                38.9737997922       59.4783056728      -17.3125926616
C                39.4399370970       58.4592577443      -18.3926275915
S                39.4112815810       56.5771079696      -18.1501920436
C                39.8351319553       55.9240753348      -19.8023569632
H                38.8194016886       61.3560410158      -15.3903183982
H                40.5912502782       59.1798670329      -15.9487256605
H                38.2322799062       59.0391488347      -16.6440929001
H                38.5056202553       60.3105502114      -17.8392894794
H                38.8268515587       58.5994483971      -19.2811579682
H                40.4785255867       58.6444557204      -18.6437861889
H                39.8920642655       54.8503144234      -19.6721109467
H                39.0411306445       56.1976353167      -20.4913911358
H                40.7972179841       56.3282113132      -20.0990750445
N                41.3789519472       61.8830144658      -17.5760004613
C                42.6209379898       62.3928277928      -18.1216878813
C                43.8415638746       61.9344388084      -17.3386345502
O                44.7262007521       61.2760713753      -17.8895818863
C                42.8235763353       63.9048525126      -18.1255557052
C                42.1858321406       64.7099546288      -19.2603424176
C                43.0875752226       65.9041959259      -19.6035963140
C                41.8813613120       63.8767520471      -20.4956189068
H                40.8408254070       62.5535662891      -17.0297039442
H                42.7448986646       61.9693528013      -19.1256923198
H                42.5022454530       64.3003726982      -17.1632536281
H                43.9081655409       64.0471553568      -18.1883150528
H                41.2278858516       65.1037921992      -18.8979878013
H                42.6479606060       66.4908800215      -20.4053123986
H                43.2018728043       66.5369898820      -18.7263753433
H                44.0755989438       65.5755889824      -19.9086214732
H                41.4717810110       64.5102382913      -21.2799608139
H                42.7843473728       63.4091059632      -20.8823782262
H                41.1583147534       63.0963656238      -20.2789884453
N                43.9767523548       62.4001429996      -16.0953103544
C                45.2851526692       62.2896996241      -15.4890253537
C                45.6656191731       60.7957532788      -15.3469845772
O                46.8370291658       60.4372880511      -15.4653790587
C                45.3505496919       63.2159356275      -14.2691663238
C                46.7495210852       63.7886400725      -14.0389209058
C                44.7702823479       62.5169205166      -13.0505607558
C                46.6966969620       65.0726352247      -13.2127198338
H                43.2630004122       62.9277950466      -15.6160297116
H                46.0208605286       62.6469054359      -16.2290715089
H                44.7074533966       64.0635457369      -14.5172906570
H                47.3832752781       63.0466001000      -13.5487089960
H                47.2066803255       64.0010436473      -15.0092254450
H                44.6489040522       63.2098165023      -12.2234512961
H                43.7998723010       62.1000742705      -13.3008452536
H                45.4256921292       61.7055268139      -12.7361315515
H                47.6915479853       65.5063847951      -13.1304105299
H                46.0474887812       65.8003008505      -13.6910401172
H                46.3257406510       64.8669388335      -12.2137135512
N                44.6638314830       59.9049827572      -15.1737135192
C                44.8059086337       58.4550531391      -15.0644645239
C                45.2434890336       57.6975027830      -16.3430486250
O                45.8150685482       56.6151430451      -16.2729069249
C                43.4542879504       57.8918600320      -14.6445212259
H                43.7168985771       60.2618604376      -15.1548989750
H                45.5699395714       58.2338295002      -14.3064783465
H                43.5249939399       56.8186546179      -14.4909128356
H                43.1116127904       58.3642344357      -13.7271255986
H                42.7279348603       58.0836889736      -15.4324060186
N                44.9243109830       58.3181648806      -17.4824705078
C                45.3976637034       57.9948565347      -18.8111516312
C                46.7475193484       58.6937582525      -19.0826898166
O                47.1645904107       58.9137957755      -20.2154438352
C                44.4000820746       58.4489392349      -19.8800193636
C                43.1171252029       57.5758778507      -20.1246971213
O                42.9259211965       56.5378626444      -19.4725092993
O                42.3808392812       58.0110400813      -21.0458436491
H                44.4534065950       59.2130220645      -17.4185490380
H                45.5485514409       56.9072060546      -18.8553711874
H                44.0495588492       59.4497744208      -19.6185585319
H                44.9188096209       58.5125483189      -20.8397166248
N                38.9784299357       59.2186551286      -27.9944768867
C                38.0675602622       58.7886374882      -26.9260430716
C                37.4679597191       60.0453163399      -26.2089119175
O                36.3240342979       60.0767206812      -25.7596374921
C                38.6580871648       57.5854516473      -26.1004871066
C                39.2030555496       57.7707499781      -24.6646876563
C                39.2284796838       56.4727192072      -23.8274391651
O                38.3570683907       55.6189137497      -23.8686052550
N                40.3057364763       56.2979169461      -23.0256558316
H                39.8527791900       58.7179220461      -28.1166712603
H                37.1731026753       58.3758563151      -27.4240831669
H                37.8558077840       56.8505338446      -26.0098966011
H                39.4397176931       57.1455942337      -26.7213082350
H                40.1868283998       58.2377690758      -24.6582986075
H                38.5230134541       58.4396371319      -24.1273709928
H                40.8901500660       57.0631960060      -22.7175635996
H                40.2528556905       55.5236506905      -22.3796673237
N                38.2819960635       61.1034196000      -26.2103199038
C                37.8994718048       62.3644622645      -25.6471726660
C                37.0620028945       63.1378618932      -26.6348053646
O                35.9227006340       63.4599039033      -26.2673390775
C                39.1256320921       63.0513763453      -25.0657263104
C                39.5529351636       62.2373432944      -23.8517268907
C                38.8802684690       62.3679661485      -22.6380812664
C                40.5833305027       61.2944512674      -23.8917901678
C                39.2524113906       61.6613793935      -21.5024685333
C                40.9633470768       60.5650432040      -22.7709932029
C                40.3254655924       60.7693496214      -21.5449067202
O                40.7203401311       60.1508171722      -20.3971715243
H                39.2456523441       60.9769113368      -26.4939058410
H                37.1967346108       62.1553231172      -24.8236739601
H                39.9202580482       63.0899656517      -25.8099042474
H                38.8698544338       64.0661974019      -24.7627475327
H                38.0623541445       63.0705304989      -22.5589423691
H                41.1175465903       61.1430113982      -24.8110289628
H                38.7329329934       61.8109182447      -20.5686472820
H                41.7760282456       59.8516378112      -22.8073291526
H                41.3791879643       59.4525596404      -20.6126620160
N                33.4911414510       62.0251454574      -26.3668014969
C                32.8123528618       62.2030611997      -25.1180278360
C                32.6302423718       63.6898552059      -24.8473347350
O                31.5636952656       64.1385650116      -24.4414045645
C                33.4960027938       61.4879114984      -23.9587572005
C                32.9554978296       61.9977018369      -22.6285836706
S                31.1094973551       62.1485253112      -22.4751247416
C                30.8618871276       60.9852729363      -21.0753824563
H                34.4121286780       62.4350576872      -26.4729418888
H                31.8138244829       61.7725362355      -25.2365372981
H                33.3350843425       60.4149785142      -24.0768539910
H                34.5728000783       61.6676364941      -23.9959455016
H                33.2678886785       61.3325202930      -21.8291959794
H                33.3294579202       63.0016932539      -22.4378079662
H                29.8205708603       61.1024148459      -20.8000714530
H                31.0525491632       59.9697936309      -21.4081871819
H                31.5234380516       61.2604923344      -20.2637078898
N                33.6629142783       64.4765447911      -25.1141321238
C                33.5260635243       65.9063112805      -24.9714835349
C                32.2331269763       66.2954754569      -25.6593355722
O                31.2745475982       66.8559648708      -25.1431934436
C                34.7140063714       66.5839130483      -25.6227468597
C                35.1580212980       67.8440472836      -24.8885161683
C                34.2434508997       68.9809068266      -25.2654878625
C                35.2546662731       67.6656931164      -23.3800341179
H                34.5565057248       64.1125781528      -25.4173441548
H                33.4394794548       66.1454314355      -23.9078057988
H                35.5376095267       65.8673364603      -25.6313906191
H                34.4808054657       66.8385344413      -26.6572326991
H                36.1681118967       68.0730250164      -25.2485052870
H                34.4280745434       69.8529678466      -24.6464032630
H                34.3823257349       69.2476736242      -26.3053252141
H                33.2070285686       68.6931187721      -25.1403852433
H                35.8873197552       68.4432167545      -22.9578589907
H                34.2872360151       67.7346640184      -22.8925362704
H                35.6979810451       66.7027716511      -23.1356367203
N                28.3860982438       64.6185732524      -24.4463650068
C                27.4822131687       65.0526276711      -23.3945125604
C                26.7543351015       66.3891905888      -23.7374728787
O                25.6574700344       66.7218450611      -23.2809138849
C                28.2312081469       65.1115041753      -22.0789121040
C                27.8597442362       63.9151174232      -21.1519408985
O                26.6725612453       63.5699659386      -21.0305829450
O                28.8522068722       63.4392559917      -20.5431538017
H                29.3515034019       64.9242490482      -24.4360012191
H                26.6862965713       64.2985224938      -23.3086956071
H                29.3000151660       65.0631175676      -22.2613404317
H                27.9699874720       66.0149349500      -21.5240824924
N                27.5330299434       67.1225155395      -24.5526197974
C                27.2428475859       68.4217660793      -25.1252334614
C                28.3097525588       69.3986259718      -24.6214833655
O                28.0129608818       70.4956855657      -24.1479316336
H                28.2418778759       66.6028767197      -25.0561342412
H                27.2592072574       68.3501563593      -26.2144505654
H                26.2630543027       68.7584894709      -24.7830519618
N                29.5581472465       68.9269471209      -24.6038804830
C                30.5399970239       69.6365906752      -23.8253856747
C                31.3714021744       70.5070504193      -24.7448254089
O                31.6099946095       70.2015008309      -25.9004143073
C                31.3375860910       68.6805325933      -22.9467815165
C                30.3500085056       67.7598001986      -22.2360156945
C                32.1834225008       69.4963527790      -21.9872390009
C                31.0544899515       66.7107966323      -21.4090171633
H                29.8598722413       68.0843525164      -25.0748038986
H                29.9648394139       70.3067963337      -23.1727569916
H                31.9798101230       68.0749380639      -23.5800947799
H                29.6985234496       68.3682091472      -21.6030794148
H                29.7270720422       67.2677394423      -22.9791065225
H                32.7825127132       68.8401533347      -21.3630847215
H                32.8712736356       70.1361769442      -22.5344605124
H                31.5584284493       70.1084406035      -21.3423932968
H                30.3409311805       66.1275418405      -20.8365053242
H                31.5992105130       66.0452210504      -22.0769887776
H                31.7556829414       67.1735910488      -20.7183766978
N                31.7342193577       71.6772005878      -24.1896917803
C                32.4526671551       72.6835794621      -24.9320058246
C                33.9074150735       72.6609580053      -24.4842275205
O                34.2335957002       73.0350851933      -23.3560770499
C                31.8977889653       74.0798212835      -24.6965282285
C                32.7639753572       75.1517524964      -25.4405478622
O                33.8868591728       74.7898174159      -25.8657936284
O                32.2678913494       76.2905106081      -25.5260653215
H                31.6172333901       71.8491241944      -23.2029478634
H                32.3695201788       72.4218892314      -25.9879498213
H                30.8688263786       74.1795888621      -25.0387616241
H                31.9561995384       74.3477208558      -23.6374396587
N                36.6105349751       76.2040541720      -23.1411147710
C                36.7933625964       76.6435388636      -21.7706362113
C                37.2162792411       75.5291674805      -20.8051198241
O                38.0391367033       75.7386384897      -19.9189495994
C                35.5599616235       77.4007554133      -21.1834534271
C                34.2174937207       76.6490508826      -21.1181258150
C                33.4455375390       76.6531168618      -19.7127151847
O                33.9075307593       77.3400208509      -18.7843411759
O                32.4224175827       75.9410482029      -19.6670475974
H                35.7061933717       75.8558519995      -23.4208103965
H                37.6365215838       77.3476877561      -21.7861601888
H                35.8246980845       77.6919700929      -20.1610154675
H                35.4333264783       78.3247726918      -21.7506582609
H                33.5134393563       77.0495939760      -21.8541517363
H                34.3539910193       75.5954892860      -21.3661183146
N                36.6031952175       74.3418104828      -20.9096593067
C                36.6015771515       73.4566453158      -19.7585591357
C                38.0440532738       73.2284273621      -19.2987903617
O                38.3571643729       73.1200546494      -18.1130143918
C                35.8259851556       72.1742977113      -20.0786160204
C                34.3626713958       72.1815077868      -19.5614410932
C                33.3674880207       72.7194552944      -20.5875907246
C                33.9358854452       70.7759358701      -19.1439845712
H                35.9359067323       74.1595279069      -21.6447934996
H                36.1105754435       73.9838031687      -18.9227387735
H                35.8389058280       72.0306526172      -21.1600528636
H                36.3550478025       71.3334775695      -19.6246101482
H                34.3218898830       72.8287248989      -18.6778305391
H                32.3499699564       72.5196527648      -20.2624534381
H                33.4618650150       73.7976306025      -20.6939419041
H                33.5324849646       72.2668606788      -21.5565627927
H                32.9312543783       70.7857598467      -18.7357454752
H                33.9664542906       70.1217372101      -20.0098474534
H                34.6190580470       70.3833149029      -18.3955082612
N                39.8761023350       74.6267493002      -16.0248775220
C                39.3481058994       74.3375692170      -14.7170209663
C                40.2290929579       73.4951503474      -13.7863478466
O                39.9796104952       73.5034005349      -12.5870236107
C                37.9875853841       73.6268670747      -14.8547487296
O                38.0964024922       72.4126884746      -15.5290616379
H                39.2681520696       74.4663528963      -16.8204211426
H                39.1761056526       75.2812942686      -14.1800562745
H                37.6221495137       73.4062908170      -13.8498765255
H                37.2845131382       74.2997843503      -15.3621091634
H                38.2233642824       72.5921911256      -16.4782734921
N                41.2226372800       72.7822805350      -14.3388196959
C                42.0116217507       71.8011209571      -13.6006250587
C                43.5110213090       72.2022977506      -13.4401911784
O                44.2998503547       71.4854322213      -12.8444816495
C                41.7545294211       70.4129202296      -14.2171610960
C                40.2404153332       70.1440914774      -14.1883305822
S                39.5859430611       68.8830226592      -15.3413182284
C                39.4397401068       69.8206481507      -16.8855505201
H                41.2880956116       72.7633328308      -15.3500856866
H                41.6206286422       71.8118845073      -12.5714956766
H                42.1197293146       70.4206156932      -15.2475446457
H                42.3122670905       69.6641691696      -13.6582799134
H                39.9272096868       69.8384018185      -13.1927150587
H                39.6883310966       71.0465462751      -14.4484209908
H                39.2003901113       69.0915704996      -17.6528351618
H                38.6485430493       70.5566606518      -16.7954136372
H                40.3833584667       70.3062887442      -17.1218060256
N                40.7959504200       74.7296065293      -10.1445596663
C                40.0440558200       74.0028748303       -9.1337844735
C                39.8464837567       72.4970303400       -9.5393154749
O                40.8879517601       71.8477621556       -9.7909633410
C                38.6846817958       74.6477880819       -8.9106469262
O                38.6903528749       72.0564068881       -9.5291134771
H                40.5149235431       74.5431681475      -11.0988386273
H                40.6501278039       74.0254684331       -8.2194406123
H                38.1337647489       74.0780152385       -8.1686204216
H                38.8043928035       75.6754007909       -8.5781852273
H                38.1276854886       74.6218694439       -9.8438594644
H                38.5622361110       59.1506274944      -28.7895586066
H                37.4334326822       63.3657997665      -27.5348521627
H                33.6085164407       61.1465081156      -26.5224277590
H                32.1035473406       66.0953492189      -26.6304991047
H                28.4401129556       63.7201980013      -24.4442867735
H                34.6180740597       72.3384939527      -25.1095120479
H                36.7741687318       76.8895917506      -23.7008131022
H                38.7791771737       73.1613636127      -19.9733978811
H                40.1042575540       75.4961129223      -16.0712681321
H                43.8430754835       73.0616051200      -13.8292038647
H                40.6974397667       75.6145934753      -10.0138165727
H                21.3681515530       69.6097398352      -13.2757154556
H                47.3212575057       58.9873816048      -18.3180919786
