 254 
 
N                19.6740000000       41.8390000000       76.6810000000
C                19.8560000000       43.2440000000       77.0210000000
C                20.6620000000       43.8890000000       75.8780000000
O                20.2850000000       44.9330000000       75.3450000000
C                20.6500000000       43.3360000000       78.3530000000
C                19.8530000000       43.3260000000       79.6610000000
C                19.1620000000       44.6720000000       79.8530000000
C                18.2370000000       44.7300000000       81.0610000000
N                17.1660000000       45.7500000000       80.8160000000
H                19.9990000000       41.2290000000       77.4320000000
H                18.9050000000       43.7580000000       77.1580000000
H                21.3300000000       42.4850000000       78.3940000000
H                21.2170000000       44.2670000000       78.3390000000
H                19.0940000000       42.5440000000       79.6240000000
H                20.5260000000       43.1540000000       80.5010000000
H                19.9240000000       45.4410000000       79.9830000000
H                18.5630000000       44.8870000000       78.9680000000
H                17.7700000000       43.7580000000       81.2170000000
H                18.8030000000       45.0180000000       81.9470000000
H                17.0040000000       46.3100000000       81.6770000000
H                17.4530000000       46.3890000000       80.0470000000
H                16.2790000000       45.2770000000       80.5490000000
N                19.5630000000       47.0800000000       70.8430000000
C                19.5570000000       48.3700000000       71.5010000000
C                18.1020000000       48.3230000000       71.9630000000
O                17.3870000000       47.4090000000       71.5530000000
C                19.8330000000       49.4930000000       70.5000000000
O                21.1750000000       49.4400000000       70.0390000000
H                19.4150000000       47.1240000000       69.8350000000
H                20.2950000000       48.5610000000       72.2800000000
H                19.1610000000       49.3830000000       69.6490000000
H                19.6630000000       50.4530000000       70.9880000000
H                21.3380000000       50.1630000000       69.3980000000
N                17.6650000000       49.2390000000       72.8280000000
C                16.2740000000       49.2380000000       73.3530000000
C                15.2090000000       49.2740000000       72.2580000000
O                14.1130000000       48.7070000000       72.3930000000
C                16.0830000000       50.3930000000       74.3570000000
C                14.8870000000       51.3490000000       74.5570000000
C                13.4900000000       50.7510000000       74.4260000000
C                15.0440000000       52.0230000000       75.9200000000
H                18.2360000000       50.0010000000       73.1940000000
H                16.1230000000       48.3000000000       73.8870000000
H                16.2010000000       49.9300000000       75.3370000000
H                16.9150000000       51.0690000000       74.1620000000
H                14.9250000000       52.0570000000       73.7290000000
H                12.7510000000       51.5350000000       74.5900000000
H                13.3740000000       50.3350000000       73.4250000000
H                13.3690000000       49.9650000000       75.1710000000
H                14.2070000000       52.7030000000       76.0780000000
H                15.0530000000       51.2570000000       76.6960000000
H                15.9820000000       52.5780000000       75.9350000000
N                15.5730000000       49.9370000000       71.1680000000
C                14.6700000000       50.2200000000       70.0690000000
C                14.5870000000       49.1150000000       69.0320000000
O                13.6810000000       49.1510000000       68.1970000000
C                15.0560000000       51.5300000000       69.3980000000
H                16.5140000000       50.3000000000       71.0150000000
H                13.6670000000       50.3370000000       70.4800000000
H                14.3670000000       51.7240000000       68.5760000000
H                14.9970000000       52.3350000000       70.1310000000
H                16.0740000000       51.4470000000       69.0180000000
N                14.1380000000       46.1020000000       70.2020000000
C                13.2400000000       45.1930000000       70.9730000000
C                11.9490000000       45.8170000000       71.4580000000
O                10.9670000000       45.1190000000       71.7270000000
C                13.9690000000       44.6540000000       72.2120000000
C                14.1310000000       45.6540000000       73.3500000000
C                15.5930000000       45.7930000000       73.7440000000
N                15.7840000000       46.0540000000       75.1700000000
C                16.9630000000       46.0040000000       75.7910000000
N                18.0620000000       45.7050000000       75.1050000000
N                17.0460000000       46.2450000000       77.1000000000
H                14.6870000000       46.7080000000       70.8110000000
H                12.9800000000       44.3730000000       70.3040000000
H                13.4070000000       43.8050000000       72.6010000000
H                14.9670000000       44.3350000000       71.9130000000
H                13.7640000000       46.6300000000       73.0320000000
H                13.5700000000       45.3100000000       74.2190000000
H                16.1140000000       44.8670000000       73.5010000000
H                16.0310000000       46.6240000000       73.1900000000
H                14.9620000000       46.2900000000       75.7260000000
H                18.0030000000       45.5140000000       74.1050000000
H                18.9640000000       45.6660000000       75.5790000000
H                16.2050000000       46.4690000000       77.6320000000
H                17.9510000000       46.2050000000       77.5700000000
N                11.9960000000       47.1290000000       71.6250000000
C                10.8860000000       47.8850000000       72.1180000000
C                 9.6620000000       47.5630000000       71.2710000000
O                 8.5430000000       47.4230000000       71.7900000000
C                11.2170000000       49.3710000000       72.0170000000
C                10.2800000000       50.2790000000       72.7870000000
C                10.0450000000       49.8180000000       74.2150000000
O                10.5670000000       50.4050000000       75.1700000000
N                 9.2310000000       48.7780000000       74.3710000000
H                12.8140000000       47.7020000000       71.4200000000
H                10.6830000000       47.6500000000       73.1630000000
H                12.2230000000       49.5300000000       72.4070000000
H                11.1730000000       49.6660000000       70.9690000000
H                10.7090000000       51.2810000000       72.8240000000
H                 9.3160000000       50.3050000000       72.2800000000
H                 8.8050000000       48.3370000000       73.5560000000
H                 9.0330000000       48.4210000000       75.3060000000
N                 8.2500000000       43.9600000000       72.3020000000
C                 7.5180000000       44.1930000000       73.5360000000
C                 6.0900000000       44.5650000000       73.2080000000
O                 5.1430000000       43.8980000000       73.6170000000
C                 8.0870000000       45.4030000000       74.2910000000
C                 7.3480000000       45.5760000000       75.6030000000
C                 9.5890000000       45.2810000000       74.5010000000
H                 9.1560000000       44.4290000000       72.2920000000
H                 7.5910000000       43.2810000000       74.1280000000
H                 7.9380000000       46.3000000000       73.6900000000
H                 7.7590000000       46.4370000000       76.1310000000
H                 6.2900000000       45.7370000000       75.3960000000
H                 7.4760000000       44.6760000000       76.2040000000
H                 9.9450000000       46.1600000000       75.0390000000
H                 9.7940000000       44.3820000000       75.0820000000
H                10.0790000000       45.2160000000       73.5300000000
N                 8.8650000000       44.5660000000       85.8760000000
C                 8.8000000000       44.8530000000       84.4390000000
C                 9.9220000000       45.8220000000       84.1170000000
O                10.0040000000       46.8860000000       84.7180000000
C                 7.4340000000       45.4360000000       84.0880000000
C                 7.4200000000       46.6980000000       83.2520000000
C                 6.2270000000       47.5170000000       83.7000000000
C                 6.2400000000       47.6760000000       85.2220000000
N                 4.9430000000       47.3320000000       85.8730000000
H                 7.9710000000       44.6040000000       86.3650000000
H                 8.9100000000       43.9490000000       83.8400000000
H                 6.8790000000       44.6810000000       83.5310000000
H                 6.9180000000       45.6670000000       85.0200000000
H                 8.3340000000       47.2700000000       83.4130000000
H                 7.3150000000       46.4520000000       82.1950000000
H                 6.2700000000       48.5070000000       83.2450000000
H                 5.3050000000       47.0120000000       83.4090000000
H                 7.0040000000       47.0190000000       85.6370000000
H                 6.4680000000       48.7140000000       85.4650000000
H                 4.9210000000       47.7070000000       86.8430000000
H                 4.1540000000       47.7430000000       85.3340000000
H                 4.8260000000       46.2990000000       85.9080000000
N                10.8230000000       45.4410000000       83.2270000000
C                11.9510000000       46.3130000000       82.9440000000
C                11.5050000000       47.4990000000       82.1090000000
O                10.3170000000       47.6290000000       81.7550000000
C                13.0180000000       45.5970000000       82.1160000000
C                14.2180000000       46.4950000000       81.7740000000
O                14.9220000000       46.9480000000       82.7030000000
O                14.4580000000       46.7460000000       80.5710000000
H                10.8020000000       44.5660000000       82.7030000000
H                12.3490000000       46.6210000000       83.9110000000
H                13.3890000000       44.7420000000       82.6810000000
H                12.5730000000       45.2610000000       81.1800000000
N                12.4790000000       48.3510000000       81.7950000000
C                12.2730000000       49.5590000000       81.0080000000
C                11.3490000000       49.2190000000       79.8380000000
O                10.2800000000       49.8060000000       79.7210000000
C                13.6100000000       50.1890000000       80.5490000000
C                14.9020000000       49.8240000000       81.3130000000
C                14.8540000000       49.9410000000       82.8470000000
O                13.7710000000       50.1690000000       83.4440000000
O                15.9350000000       49.7780000000       83.4660000000
H                13.4500000000       48.2270000000       82.0800000000
H                11.8160000000       50.3340000000       81.6230000000
H                13.7720000000       49.8970000000       79.5110000000
H                13.5050000000       51.2720000000       80.6200000000
H                15.1510000000       48.7890000000       81.0810000000
H                15.6970000000       50.4850000000       80.9680000000
N                11.7300000000       48.2460000000       79.0080000000
C                10.7560000000       47.6070000000       78.1160000000
C                 9.9310000000       46.5560000000       78.8630000000
O                10.3380000000       46.0770000000       79.9300000000
C                11.4260000000       46.8450000000       76.9610000000
C                12.6370000000       46.0380000000       77.3930000000
O                12.6840000000       45.5560000000       78.5470000000
O                13.5610000000       45.8890000000       76.5630000000
H                12.6810000000       47.8860000000       78.9300000000
H                10.1310000000       48.4110000000       77.7260000000
H                10.7020000000       46.1550000000       76.5270000000
H                11.7540000000       47.5630000000       76.2090000000
N                 8.7770000000       46.2000000000       78.3070000000
C                 7.8100000000       45.3380000000       78.9940000000
C                 8.3620000000       43.9740000000       79.3750000000
O                 7.7330000000       43.2070000000       80.1060000000
H                 8.4760000000       46.4910000000       77.3770000000
H                 7.4800000000       45.8340000000       79.9060000000
H                 6.9500000000       45.1830000000       78.3430000000
N                 9.5530000000       43.6730000000       78.8820000000
C                10.2160000000       42.4290000000       79.2260000000
C                10.6350000000       42.3630000000       80.6870000000
O                11.5110000000       43.1140000000       81.1040000000
C                11.4820000000       42.2620000000       78.3800000000
C                11.2450000000       41.6580000000       77.0300000000
C                10.1660000000       40.8020000000       76.8120000000
C                12.1120000000       41.9360000000       75.9760000000
C                 9.9510000000       40.2440000000       75.5610000000
C                11.9090000000       41.3790000000       74.7280000000
C                10.8300000000       40.5280000000       74.5180000000
H                10.0820000000       44.2680000000       78.2440000000
H                 9.4870000000       41.6410000000       79.0370000000
H                11.9320000000       43.2430000000       78.2280000000
H                12.1750000000       41.6130000000       78.9150000000
H                 9.4920000000       40.5720000000       77.6240000000
H                12.9530000000       42.5950000000       76.1360000000
H                 9.1060000000       39.5920000000       75.3960000000
H                12.5870000000       41.6040000000       73.9180000000
H                10.6730000000       40.0860000000       73.5450000000
N                10.0340000000       41.4620000000       81.4560000000
C                10.6650000000       41.0230000000       82.7190000000
C                11.7810000000       39.9680000000       82.4750000000
O                11.5180000000       38.8450000000       81.9820000000
C                 9.6230000000       40.5340000000       83.7400000000
C                 8.4530000000       39.8980000000       83.0220000000
C                10.2350000000       39.5560000000       84.7200000000
H                 9.1370000000       41.0230000000       81.2490000000
H                11.1720000000       41.8940000000       83.1350000000
H                 9.2640000000       41.3910000000       84.3090000000
H                 7.7260000000       39.5580000000       83.7600000000
H                 7.9970000000       40.6370000000       82.3630000000
H                 8.8130000000       39.0510000000       82.4380000000
H                 9.4690000000       39.2330000000       85.4250000000
H                10.6200000000       38.6970000000       84.1700000000
H                11.0470000000       40.0500000000       85.2540000000
N                13.0170000000       40.3560000000       82.8130000000
C                14.2280000000       39.5440000000       82.6060000000
C                14.5540000000       38.6220000000       83.8000000000
O                14.4350000000       39.0220000000       84.9610000000
C                15.4250000000       40.4700000000       82.4170000000
C                15.6050000000       41.0980000000       81.0480000000
C                14.6500000000       41.9900000000       80.5150000000
C                16.7730000000       40.8530000000       80.3110000000
C                14.8430000000       42.5870000000       79.2730000000
C                16.9750000000       41.4310000000       79.0690000000
C                16.0100000000       42.2880000000       78.5480000000
O                16.2510000000       42.8460000000       77.3100000000
H                13.2210000000       41.2560000000       83.2460000000
H                14.0530000000       38.9130000000       81.7350000000
H                15.3320000000       41.2890000000       83.1310000000
H                16.3290000000       39.8970000000       82.6230000000
H                13.7560000000       42.2120000000       81.0790000000
H                17.5300000000       40.2000000000       80.7200000000
H                14.1080000000       43.2690000000       78.8720000000
H                17.8740000000       41.2190000000       78.5090000000
H                15.9540000000       42.2350000000       76.6040000000
H                18.8006501512       41.6751753583       76.5380960867
H                21.5063025648       43.4596550732       75.5573504827
H                20.3576620311       46.6788262911       70.9755590871
H                15.2600324527       48.3753912251       69.0344855012
H                14.7084538683       45.6121572212       69.7073926445
H                 9.7522647835       47.4610389520       70.2803152805
H                 8.3934536212       43.0773963233       72.1998637749
H                 5.8994556722       45.3700605199       72.6462434527
H                 9.1919491877       43.7370554173       86.0023135288
H                14.8665945060       37.6859984649       83.6381797258
