 69 
 
N                21.3945438635       50.4978469932        5.3223219389
C                21.8536318943       50.3500834452        6.7024977142
C                21.6476771130       51.6228940102        7.5310752084
O                21.2240403269       51.5751795312        8.6986319192
C                23.3601544270       49.9989811404        6.6920231801
C                23.8459123401       49.7177153000        8.1131073045
C                23.6052596654       48.4921441933        8.7290685314
C                24.5125621260       50.7161567818        8.8136558045
C                24.0636560413       48.2625806013       10.0144416224
C                24.9909456409       50.4635699816       10.0877203039
C                24.7634116811       49.2414630966       10.6856206793
H                22.0445001499       50.2439778373        4.5781190754
H                21.2831367739       49.5593596529        7.2031638668
H                23.4964467406       49.1269426134        6.0523975751
H                23.9060144243       50.8394954624        6.2677443762
H                23.0485464872       47.7254630230        8.2112584213
H                24.6617324182       51.6893727769        8.3706069141
H                23.8609137615       47.3124963827       10.4806949408
H                25.5046655098       51.2445405602       10.6279381363
H                25.1136292553       49.0900132410       11.6945483040
N                22.0377086554       52.8018236296        6.9643897742
C                21.9721068176       53.9921450826        7.8002250939
C                20.5593692278       54.5571192240        7.8919434270
O                20.3105888416       55.5171311445        8.6294158202
C                22.8733554311       55.1240587620        7.2542161085
C                24.3843441648       54.7373468742        7.3499773946
O                24.7461083818       54.1107691359        8.3817648340
O                25.1031191458       55.1036607388        6.4083070008
H                22.4111674941       52.8866472241        6.0193685078
H                22.2872988331       53.7356770693        8.8199019908
H                22.6114652336       55.3427441316        6.2228188815
H                22.7343125636       56.0222853836        7.8539806854
N                19.4649010991       51.8972608015       10.9880120367
C                20.0893310520       52.1841686602       12.3229018105
C                20.5733431704       53.6591050839       12.5266115021
O                21.1594018047       54.1550370831       11.5398381747
C                21.3714034140       51.3389596487       12.4071470615
C                21.0129860114       49.8990076068       12.5436853533
C                20.4433842879       49.4441507173       13.7263847405
C                21.1406974688       49.0299330217       11.4597239426
C                20.0617256561       48.1038606065       13.8291031856
C                20.7511313808       47.6998125788       11.5567549570
C                20.2118605723       47.2401108038       12.7463118820
O                19.7908076411       45.9514444713       12.9130427592
O                20.4121299647       54.2482661458       13.6216143295
H                20.0316818796       52.0531367529       10.1711279858
H                19.3665105581       51.9257888220       13.0944845792
H                21.9628771431       51.5269044857       11.5076741356
H                21.9419763457       51.6874741232       13.2730507560
H                20.2988315582       50.1315493241       14.5444320969
H                21.5429844688       49.4124268089       10.5336562996
H                19.5902338339       47.7398757432       14.7249452179
H                20.8469720354       47.0468912536       10.7042327069
H                19.7328521128       45.4948595026       12.0319089193
O                27.3535926794       53.2176611495        8.6049253140
H                27.8124583192       53.7716785488        7.9678715485
H                26.4241701907       53.5151461200        8.5731009232
O                24.0251168729       54.1604406228       11.1514931180
H                24.2374569511       54.1438695972       10.2009159684
H                23.0586180728       54.1314571699       11.2297148870
O                25.4986365355       52.6155866373       12.9884883127
H                26.3190648242       53.1154705081       13.0119642578
H                24.9187660414       53.1152327385       12.3912640098
O                22.0328636894       56.8609461726       10.2333983856
H                21.5082982455       56.4329023914        9.5289262611
H                22.1729145823       56.1601005369       10.8802803850
H                20.6696422338       49.9811470978        5.1898876330
H                19.8222944977       54.1506744445        7.3520142803
H                19.2223759154       51.0314024103       10.9496612658
