 78 
 
N                41.9329358709       27.9729026174       -4.6775257857
C                42.0775240258       28.6366261906       -5.9618352806
C                41.9542953637       27.5939314754       -7.0881908196
O                42.2471512314       26.4231118552       -6.9104038958
C                43.4300100150       29.3526865569       -6.0438065268
C                43.4651060182       30.5793170753       -5.1339191892
C                44.7937756375       31.3326544775       -5.2279860506
C                44.6846391804       32.6454575039       -4.4585414249
N                45.9546014015       33.4212236891       -4.5154668387
H                42.7664887080       27.6186173423       -4.2259963780
H                41.2499912048       29.3476654094       -6.0550216976
H                44.2150811583       28.6488254517       -5.7616847400
H                43.6020599089       29.6615488794       -7.0762714024
H                42.6536346037       31.2458588597       -5.4281307416
H                43.2894542647       30.2612752135       -4.1059818776
H                45.5841342770       30.7066419543       -4.8136679008
H                45.0122251692       31.5307774497       -6.2779319035
H                43.8870383642       33.2514150436       -4.8898204397
H                44.4433406996       32.4354890303       -3.4164860511
H                45.8602645977       34.3065155032       -3.9962910013
H                46.7244492260       32.8754930019       -4.1006602108
H                46.1937993775       33.6374648396       -5.4948049646
N                41.5182412704       28.0719494653       -8.2709184654
C                41.6442441136       27.3003706068       -9.4954764236
C                42.5550912951       28.1054783650      -10.4314780949
O                42.3656538631       29.3098299022      -10.5853275632
C                40.2701384033       27.0620636308      -10.1408954546
C                40.2284006872       25.8490981429      -11.0711573333
C                40.3294774859       24.5307242573      -10.2998256900
C                39.9585322228       23.3269645942      -11.1585866922
N                39.9569335937       22.0956103561      -10.3290646976
H                41.3872664512       29.0633790724       -8.4101570490
H                42.1131836186       26.3535292594       -9.2182585006
H                39.5424904036       26.9202707990       -9.3397418131
H                40.0006144548       27.9626382081      -10.6952833228
H                39.2760395241       25.8700487674      -11.6026349788
H                41.0293468250       25.9244279132      -11.8112068171
H                41.3461821941       24.4101156957       -9.9273423634
H                39.6553414286       24.5691180659       -9.4424567639
H                38.9629566095       23.4715740862      -11.5816652361
H                40.6764275171       23.2134679227      -11.9728133428
H                39.6886257714       21.2695607958      -10.8738404038
H                40.8897173330       21.9285067608       -9.9370658047
H                39.2930269270       22.1798502918       -9.4859989487
N                43.5778067297       27.4349409691      -10.9659849994
C                44.4826682437       28.0078776391      -11.9336161094
C                44.1978478418       27.4437610034      -13.3763463272
O                44.5638105432       28.1708403483      -14.3172767281
C                45.9483246641       27.7299626918      -11.5812569560
C                46.3329666138       26.2615514201      -11.7153988670
C                47.7822126949       26.0326791782      -11.1937266020
O                47.9669974140       26.2246872831       -9.9738180366
O                48.6423910399       25.6744727180      -12.0230382428
O                43.6375059599       26.3352932670      -13.4443152371
H                43.6109139352       26.4287618846      -10.9084015845
H                44.2996855886       29.0873415270      -11.9468946694
H                46.5683400634       28.3155764062      -12.2660498578
H                46.1654200447       28.0418996259      -10.5549209836
H                45.6675493099       25.6406205446      -11.1103693752
H                46.2660698810       25.9453512537      -12.7585197995
N                35.8092720536       21.0663469997      -11.4179992523
C                35.5996256512       21.3073140151      -10.0053274924
C                34.1162292751       21.0919406507       -9.7245227984
O                33.2719977561       21.5422373493      -10.4898393584
C                35.9677269060       22.7451518446       -9.6022298727
C                36.2042694368       22.8435489409       -8.0982780714
C                37.3403885667       21.8719109331       -7.6882603060
O                38.4881268429       22.1467934511       -8.1134731112
O                37.0345401889       20.8855005966       -6.9982492961
H                35.0184932463       21.3288268644      -11.9932289748
H                36.2217730405       20.5943440449       -9.4543569426
H                36.8867004893       23.0272630917      -10.1155222414
H                35.1609641860       23.4167589940       -9.9041736506
H                36.4976517078       23.8582966299       -7.8268072393
H                35.3043686578       22.5883839926       -7.5370311136
H                41.5720813213       28.5441993872       -4.0830478679
H                36.5187393934       21.5418435433      -11.7018286566
H                33.8297852432       20.5817542822       -8.9135606008
