 259 
 
N                10.8652693407       21.1023036449        7.3786685962
C                10.3662889581       20.4915058205        6.1499721801
C                 8.9033421092       20.7929176820        5.8803424279
O                 8.4817844035       20.8522240303        4.7140192119
C                10.5681178948       18.9734050912        6.4211640313
C                11.8644341528       18.9763232835        7.2355702184
C                11.6645188502       20.1814948158        8.1900580830
H                10.9640730841       20.8197682268        5.2928451120
H                 9.7443274327       18.6002728339        7.0262046070
H                10.6355050670       18.4026158065        5.5032554764
H                11.9989786358       18.0418639905        7.7741008650
H                12.7183571516       19.1452509117        6.5831267483
H                11.0875801895       19.8719440976        9.0655252093
H                12.6063095587       20.6226392807        8.5020101647
N                19.0116402612       22.5828100386        2.2216708169
C                19.8354581552       21.4353866110        2.5409723142
C                18.9265907268       20.3047848810        3.0517913617
O                17.8891406712       20.5418137035        3.6536297948
C                20.8809326920       21.7848771719        3.6648630603
C                21.9644195483       22.6362897042        3.0792039336
C                20.2656411409       22.5083801449        4.9192502972
H                18.2775848986       22.8365334404        2.8726715842
H                20.3711398725       21.1174173575        1.6461654429
H                21.2959352796       20.8268192504        3.9927186524
H                22.6723695605       22.9206373292        3.8490021308
H                22.5119591618       22.0794029318        2.3248023247
H                21.5440098617       23.5274341419        2.6245582502
H                20.9253909731       22.3753840970        5.7676109368
H                20.1280192241       23.5652307768        4.7083416723
H                19.2958376443       22.0816028473        5.1611941414
N                19.4537722674       19.0756835213        2.9475234238
C                18.8241471852       17.8657908844        3.5235950142
C                19.9457372398       17.2472433978        4.3556105817
O                20.7147762107       16.4441892072        3.8675457962
C                18.3708474793       16.9405854698        2.3927941031
O                17.6203969227       15.8978241054        2.9584584763
H                20.2945969925       18.9233596320        2.3976372588
H                17.9644081609       18.1608961593        4.1234094137
H                17.7483155991       17.5178155993        1.6930055756
H                19.2605088953       16.5734475620        1.8707673217
H                17.8430350091       15.0497672829        2.5640583531
N                20.1416525714       17.7244501130        5.5786705974
C                21.3797584990       17.4206159711        6.2680258589
C                21.3560891329       15.9950151919        6.7419585517
O                20.3031550586       15.3676758904        6.8726582526
C                21.4213446178       18.3940170538        7.4641466065
C                19.9723898712       18.8641219178        7.6030896475
C                19.3807478434       18.7849786745        6.2019280006
H                22.2146732544       17.5676800931        5.5771254930
H                21.7788417653       17.9037602017        8.3659645850
H                22.0860052323       19.2256478938        7.2343702291
H                19.4328148129       18.1756869534        8.2549695098
H                19.9106627464       19.8636901827        8.0266972910
H                18.3165740189       18.5407462271        6.2193376972
H                19.5218231251       19.7216664152        5.6532030691
N                22.5592356307       15.4661537094        7.0714298063
C                22.6123711851       14.1045444167        7.5935559230
C                21.9178317682       13.9903965328        8.9457624118
O                21.9575751450       14.9032175927        9.7661014934
C                24.1160261762       13.8928925181        7.8779259104
C                24.8227408071       14.8960234929        6.9524867177
C                23.8605075592       16.0835335952        6.9048212706
H                22.2104836591       13.4021263097        6.8627028119
H                24.3444192014       14.1348336520        8.9157943845
H                24.4348332781       12.8769600699        7.6657429735
H                25.8066578142       15.1850404318        7.3061614786
H                24.9191257259       14.4648889306        5.9572293322
H                24.0627394057       16.7940127946        7.7135663031
H                23.9425589295       16.6156064143        5.9576214506
N                23.7893576355       15.3585727803       11.9760420689
C                23.7829067572       16.7988470510       12.1843701334
C                22.5021927459       17.2265929641       12.9427226198
O                22.4948797490       18.1040942182       13.7989029423
C                23.8946355671       17.5129510879       10.8268201731
C                23.9447443505       19.0351714583       11.0081260775
C                24.0344203651       19.7441143599        9.6702221581
O                24.7634393189       19.3075065786        8.7769348333
N                23.2694887700       20.8188782812        9.5055060928
H                23.6062469311       15.0048350246       11.0477997587
H                24.6422247860       17.0569848799       12.8142249888
H                24.8060983578       17.1779721075       10.3312548443
H                23.0399306744       17.2306986814       10.2084829463
H                23.0760254653       19.3871163650       11.5636311515
H                24.8451339719       19.2964688746       11.5684569333
H                22.6747060939       21.1781602421       10.2345080972
H                23.3191092028       21.3302437077        8.6257551506
N                21.3723512967       16.6431162471       12.5217041584
C                20.1374728932       16.9162241427       13.2167308483
C                20.1843143947       16.4447704487       14.6793757020
O                19.6344965907       17.1302228306       15.5468687923
C                18.9594157740       16.2480777552       12.4732798410
C                18.7073834881       16.9405622618       11.1286514839
C                17.8374292645       16.0304577255       10.2534943567
C                18.1213683045       18.3272841074       11.4031531886
H                21.3990804987       15.9211881234       11.8127805508
H                19.9966358542       18.0002556455       13.2643649138
H                19.2186705816       15.1973884792       12.3263139978
H                18.0679730176       16.3015905492       13.0983024317
H                19.6633225317       17.0646725106       10.6097175868
H                17.5409902825       16.5407136251        9.3401995050
H                18.4077535548       15.1532024742        9.9686477979
H                16.9397061733       15.7195567930       10.7830532733
H                17.7458777710       18.7550239914       10.4756156673
H                17.3080754260       18.2568162145       12.1195940583
H                18.8793085390       18.9982931222       11.7927464200
N                12.5165515379       15.8487588607       10.9594933602
C                13.4487186342       16.8638117504       10.4282024882
C                14.2469571581       16.3302100877        9.2286506721
O                14.7715863607       17.1240385324        8.4541410286
C                14.3799172664       17.3719959667       11.5219138978
C                13.6099858785       18.2161204063       12.4809761462
S                13.1593846767       19.8814124236       11.7673060885
C                14.7898136074       20.7184614394       11.8131104111
H                12.6377070825       15.5417164537       11.9220868382
H                12.8549587836       17.7012581189       10.0360157767
H                14.8117452856       16.5094269464       12.0368172857
H                15.1945808017       17.9250185228       11.0504740395
H                12.6567592389       17.7610711562       12.7394805969
H                14.1661872764       18.4017033368       13.3961156265
H                14.6120781958       21.7664286151       11.6048465211
H                15.2599259522       20.5998886862       12.7817725335
H                15.4304359116       20.2980210884       11.0439281304
N                14.3105289686       14.9920733169        9.1029685779
C                14.9063225101       14.3370238789        7.9462349555
C                13.9626494812       14.1847694497        6.7493972473
O                14.3942437313       13.7235053933        5.6841812085
C                15.4182195261       12.9161633391        8.2465685217
C                16.6577947552       12.7917667870        9.1182166340
C                16.6989114702       11.3727631933        9.7083499053
C                17.9079476648       12.9825093179        8.2722568544
H                14.0317326113       14.3965623343        9.8729596955
H                15.7504708048       14.9477180109        7.5971913903
H                14.5865854986       12.3791940219        8.7133426748
H                15.6256754884       12.4472738105        7.2846143251
H                16.6157052863       13.5182996132        9.9316112857
H                17.5887145331       11.2349909811       10.3134292010
H                15.8264860893       11.1920276941       10.3311026170
H                16.7090260687       10.6415599952        8.9056501852
H                18.8098039955       12.9170066816        8.8714363444
H                17.9493899740       12.2141481950        7.5047776495
H                17.9160731577       13.9435542245        7.7652326011
N                12.1315844519       16.0550640625        4.7334075084
C                12.1540569228       16.9039247718        3.5526817291
C                13.2659631918       17.9505389372        3.7129048157
O                13.9565093054       17.9689038798        4.7259245167
H                12.8048871060       16.3131461693        5.4469679193
H                12.3659248407       16.2774657981        2.6772561134
H                11.1883287974       17.4032711183        3.4209884459
N                13.3803645611       18.8232508847        2.7286794413
C                14.4634814260       19.8207424666        2.7360540018
C                14.1807323615       20.8174850705        3.8136887471
O                13.0295336030       21.0655682592        4.2058670217
C                14.3059615013       20.6139691569        1.4011290842
C                13.3456978324       19.7870109432        0.5401126579
C                12.6019108357       18.8600721302        1.4936229031
H                15.4322468845       19.3347827164        2.8585544460
H                13.8733830437       21.5891320064        1.6227597275
H                15.2695945733       20.7665097412        0.9233689476
H                12.6512667836       20.4156116669       -0.0114055397
H                13.9102385675       19.1981493723       -0.1815795546
H                11.6045984673       19.2546999965        1.7146378836
H                12.5020390568       17.8584762715        1.0758937220
N                15.2783607729       21.5118948775        4.1706870588
C                15.2116909009       22.5689415295        5.1411091914
C                15.8458156907       23.8051720460        4.4993314043
O                16.8734216352       23.6930561219        3.8508088479
C                16.0370781299       22.1408201252        6.3801737803
C                15.1972881097       21.0852753272        7.1001264138
C                16.2826130329       23.3425882032        7.2903043513
C                16.0259843059       20.4087517663        8.2134342122
H                16.2018574284       21.2337898638        3.8682633445
H                14.1702724477       22.7573561630        5.4088289989
H                16.9797301536       21.7133531151        6.0345594335
H                14.3127695875       21.5690144932        7.5111249124
H                14.8827688035       20.3213949561        6.3902467413
H                16.7760107028       23.0359863409        8.2069643465
H                16.9196216514       24.0766150647        6.7991130632
H                15.3330009544       23.8173502613        7.5279068733
H                15.4756456493       19.5568382441        8.6043265359
H                16.9612641587       20.0434826125        7.7999081653
H                16.2306575218       21.1114851215        9.0136114757
N                25.5717321599       24.3551007315       11.2357949252
C                24.8817769142       24.2345229227        9.9320567570
C                25.6085868614       24.8644529040        8.7510820697
O                25.2858636002       24.5287274770        7.6138942950
C                23.5134133409       24.9417004520       10.0429820721
C                22.5399226064       24.1506493550       10.8788794990
C                22.4467361119       24.1234770522       12.2314046957
C                21.4344613145       23.3624878909       10.3797543691
N                21.3914924115       23.3432515675       12.6266331302
C                20.7531885281       22.8829687178       11.5121542517
C                20.9113744739       23.0930607158        9.1243315026
C                19.5776974434       22.1305957579       11.4165525389
C                19.7274697777       22.3842967491        9.0122500626
C                19.0879997619       21.8974136685       10.1537452682
H                25.2717762719       25.0842268344       11.8682215411
H                24.7595255363       23.1665387154        9.7241971550
H                23.6696092297       25.9224927602       10.4943013094
H                23.1001545730       25.0746642137        9.0444982570
H                23.0452913999       24.6265112121       12.9621240021
H                21.0642045563       23.2186245439       13.5835529584
H                21.3946370677       23.4857648818        8.2448966989
H                19.0760245719       21.7826503057       12.3060890129
H                19.2918432181       22.2059763591        8.0425278425
H                18.1758217124       21.3311691691       10.0432386612
O                17.8913512704       15.2833273568        5.5795797396
H                18.7368650322       15.4087334381        6.0377396834
H                17.3451872453       16.0748998079        5.7221631926
O                16.2064487176       17.4743967471        6.1628854934
H                15.4899915572       17.6296656876        5.5354176273
H                15.7540552382       17.3673585745        7.0161214708
O                23.5721261325       22.3969926142        7.0227864818
H                24.1887116707       23.1190879052        7.2605497539
H                22.8494949888       22.7992429785        6.5329498742
O                21.7770987344       18.5000153937        1.4961382195
H                22.1942693863       17.7264799004        1.8798649853
H                22.4508402768       18.9356710562        0.9302845640
O                17.0851705886       13.0775054752        4.4824823579
H                17.4903417789       13.8951740911        4.8164718250
H                16.1470644644       13.1909119627        4.6724129082
O                25.0246246401       20.3572649406        6.0417967360
H                25.0830073052       19.8314779388        6.8500487942
H                24.4531799647       21.1062683443        6.2819497250
O                24.0119240266       13.4316978887        3.6298301565
H                24.3640948392       13.1621617678        2.7788292526
H                24.2584395428       12.7343149936        4.2580817698
N                18.7301154866       18.9222232309       -4.3174126472
C                18.0920750587       18.1120907614       -3.2713881689
C                16.9211139542       17.3487591861       -3.9280017983
O                16.0461774995       17.9473210404       -4.5520141197
C                17.5198717851       18.9929231836       -2.1813711297
C                18.5186081853       20.0264862069       -1.6015905456
C                16.8086082108       18.1405644050       -1.1230361544
C                19.8558163093       19.4737579445       -1.1389074233
H                18.3212186836       19.8378741784       -4.4969716916
H                18.8366614620       17.4049068038       -2.8986872029
H                16.7395653173       19.5975506433       -2.6692016557
H                18.7124595818       20.7712162981       -2.3757135443
H                18.0249105283       20.5276966289       -0.7671517778
H                16.3843360904       18.7815189375       -0.3552052819
H                16.0064595797       17.5578781152       -1.5685136337
H                17.5072456036       17.4508580940       -0.6552805034
H                20.4678462312       20.2865699319       -0.7596657112
H                19.7364187349       18.7386898903       -0.3469551680
H                20.4003956048       19.0116797674       -1.9590882646
H                11.5438321114       21.6601416700        7.1827877548
H                 8.2751814896       20.9445792066        6.6435023180
H                19.5297849390       23.3157769017        2.1562057842
H                21.4155672921       13.1583585304        9.1812261217
H                24.5977502392       15.0273490153       12.1923571535
H                20.6549958147       15.5947600507       14.9158948856
H                11.6746743368       16.1646131922       10.9210379366
H                13.0039182371       14.4571875072        6.8307778560
H                11.3172961927       16.0925250445        5.1148931644
H                15.4180797903       24.7020342124        4.6119380381
H                25.4733060338       23.5901588869       11.6996658901
H                26.3319716194       25.5363957064        8.9098503351
H                19.5888119495       19.0762310477       -4.0962295171
H                16.8663637409       16.3533746503       -3.8491853034
