 426 
 
N                 4.9940000000       25.5600000000        1.1180000000
C                 5.1290000000       26.6950000000        0.2370000000
C                 5.3780000000       28.0170000000        0.9910000000
O                 4.9270000000       29.0570000000        0.4890000000
H                 5.7260000000       24.8630000000        1.1120000000
H                 5.9720000000       26.5540000000       -0.4430000000
H                 4.2060000000       26.8290000000       -0.3300000000
N                 6.0750000000       27.9930000000        2.1300000000
C                 6.1570000000       29.1510000000        2.9980000000
C                 7.5600000000       29.7800000000        2.9940000000
O                 7.8860000000       30.6410000000        3.8140000000
C                 5.8040000000       28.7620000000        4.4410000000
C                 4.3490000000       28.2880000000        4.5670000000
C                 4.1080000000       27.8330000000        6.0330000000
C                 3.3720000000       29.4180000000        4.2520000000
H                 6.3610000000       27.1020000000        2.5270000000
H                 5.4560000000       29.8990000000        2.6140000000
H                 6.4790000000       27.9580000000        4.7420000000
H                 5.9750000000       29.6300000000        5.0760000000
H                 4.1730000000       27.4510000000        3.8870000000
H                 3.0900000000       27.4730000000        6.1470000000
H                 4.7930000000       27.0320000000        6.2940000000
H                 4.2700000000       28.6760000000        6.6970000000
H                 2.3670000000       29.1500000000        4.5660000000
H                 3.6500000000       30.3310000000        4.7750000000
H                 3.3220000000       29.6270000000        3.1850000000
N                 8.4480000000       29.3030000000        2.0590000000
C                 9.7910000000       29.9160000000        2.0770000000
C                 9.8290000000       31.4440000000        1.8700000000
O                10.3840000000       32.2700000000        2.6360000000
C                10.7050000000       29.2320000000        1.0130000000
C                10.7980000000       27.7210000000        1.4060000000
C                12.0760000000       29.9260000000        0.9020000000
C                11.5070000000       26.8910000000        0.2850000000
H                 8.1480000000       28.8750000000        1.1870000000
H                10.2070000000       29.7280000000        3.0730000000
H                10.2100000000       29.3050000000        0.0350000000
H                11.3470000000       27.6270000000        2.3460000000
H                 9.7870000000       27.3430000000        1.5320000000
H                12.6830000000       29.4630000000        0.1260000000
H                11.9460000000       30.9720000000        0.6320000000
H                12.5990000000       29.8850000000        1.8570000000
H                11.5810000000       25.8480000000        0.5740000000
H                10.9240000000       26.9580000000       -0.6300000000
H                12.5060000000       27.2710000000        0.0870000000
N                 9.0990000000       31.8370000000        0.8200000000
C                 9.0070000000       33.2380000000        0.4270000000
C                 8.4800000000       34.0890000000        1.5560000000
O                 9.0390000000       35.1290000000        1.9830000000
H                 8.7140000000       31.1610000000        0.1700000000
H                 9.9920000000       33.6190000000        0.1020000000
H                 8.3500000000       33.3030000000       -0.4450000000
N                 7.2980000000       33.7540000000        2.0480000000
C                 6.7040000000       34.5820000000        3.1190000000
C                 7.5540000000       34.6930000000        4.3750000000
O                 7.5630000000       35.7540000000        5.0100000000
C                 5.3860000000       33.8110000000        3.4230000000
C                 5.0580000000       33.0160000000        2.1740000000
C                 6.3680000000       32.7540000000        1.4490000000
H                 6.5080000000       35.5850000000        2.7270000000
H                 5.5650000000       33.1350000000        4.2600000000
H                 4.5760000000       34.4840000000        3.6900000000
H                 4.5250000000       32.0980000000        2.4070000000
H                 4.4080000000       33.6000000000        1.5210000000
H                 6.7520000000       31.7520000000        1.6440000000
H                 6.2760000000       32.9240000000        0.3780000000
N                 8.1980000000       33.5990000000        4.7860000000
C                 9.0510000000       33.5860000000        5.9720000000
C                10.2550000000       34.4750000000        5.7620000000
O                10.5460000000       35.2960000000        6.6330000000
C                 9.4500000000       32.1270000000        6.3760000000
C                 8.1770000000       31.4470000000        6.8860000000
C                10.5500000000       32.1790000000        7.4530000000
C                 8.4160000000       29.9320000000        7.0760000000
H                 8.2710000000       32.8110000000        4.1570000000
H                 8.4720000000       34.0430000000        6.7850000000
H                 9.8090000000       31.6280000000        5.4720000000
H                 7.8700000000       31.9000000000        7.8270000000
H                 7.3950000000       31.5740000000        6.1410000000
H                10.7760000000       31.1810000000        7.8090000000
H                11.4580000000       32.6010000000        7.0260000000
H                10.2260000000       32.8080000000        8.2740000000
H                 7.4870000000       29.4440000000        7.3480000000
H                 8.7550000000       29.5040000000        6.1350000000
H                 9.1600000000       29.7410000000        7.8420000000
N                10.8670000000       34.3650000000        4.5940000000
C                12.0270000000       35.2140000000        4.3210000000
C                11.5930000000       36.6840000000        4.3660000000
O                12.2750000000       37.5320000000        4.9810000000
C                12.6420000000       34.8800000000        2.9380000000
C                13.4270000000       33.5860000000        3.1220000000
C                13.5210000000       36.0370000000        2.4740000000
C                14.0210000000       33.0320000000        1.8150000000
H                10.5790000000       33.7080000000        3.8840000000
H                12.7780000000       35.0740000000        5.1100000000
H                11.8320000000       34.7250000000        2.2110000000
H                14.2430000000       33.7470000000        3.8300000000
H                12.7520000000       32.8270000000        3.5220000000
H                13.9900000000       35.8130000000        1.5190000000
H                12.9410000000       36.9460000000        2.3190000000
H                14.3010000000       36.2430000000        3.2040000000
H                14.5390000000       32.0930000000        1.9940000000
H                13.2320000000       32.8520000000        1.0850000000
H                14.7270000000       33.7290000000        1.3720000000
N                10.4120000000       36.9710000000        3.7990000000
C                 9.9810000000       38.3660000000        3.7460000000
C                 9.7800000000       38.9060000000        5.1330000000
O                 9.9330000000       40.1190000000        5.2920000000
C                 8.6290000000       38.5230000000        3.0470000000
O                 8.7860000000       38.4750000000        1.6590000000
H                10.0050000000       36.3000000000        3.1610000000
H                10.7170000000       38.9840000000        3.2130000000
H                 7.9530000000       37.7370000000        3.4090000000
H                 8.2420000000       39.5230000000        3.2520000000
H                 8.9710000000       37.5670000000        1.3950000000
N                 9.3600000000       38.1050000000        6.1170000000
C                 9.1390000000       38.6980000000        7.4320000000
C                10.4150000000       39.2980000000        8.0090000000
O                10.4130000000       40.3820000000        8.6070000000
C                 8.6300000000       37.6690000000        8.4150000000
C                 7.2440000000       37.1290000000        8.0880000000
C                 6.1220000000       38.1410000000        8.1060000000
N                 4.9500000000       37.5030000000        7.5830000000
C                 4.0230000000       36.9370000000        8.3470000000
N                 4.1560000000       36.9470000000        9.6830000000
N                 2.9790000000       36.3740000000        7.7470000000
H                 9.2940000000       37.1020000000        6.0120000000
H                 8.4310000000       39.5270000000        7.3210000000
H                 9.3430000000       36.8430000000        8.4420000000
H                 8.6000000000       38.1360000000        9.4010000000
H                 7.2740000000       36.6630000000        7.1010000000
H                 7.0100000000       36.3540000000        8.8190000000
H                 5.9630000000       38.5490000000        9.1030000000
H                 6.3480000000       38.9870000000        7.4510000000
H                 4.8920000000       37.4480000000        6.5670000000
H                 4.8750000000       37.4770000000       10.1590000000
H                 3.3270000000       36.7210000000       10.2120000000
H                 2.8420000000       36.4730000000        6.7420000000
H                 2.1850000000       36.1560000000        8.3420000000
N                11.5370000000       38.5940000000        7.8560000000
C                12.8330000000       39.0360000000        8.3450000000
C                13.3740000000       40.1720000000        7.4600000000
O                13.9620000000       41.1680000000        7.8910000000
C                13.8430000000       37.8620000000        8.3780000000
C                13.6110000000       36.9440000000        9.5370000000
C                12.6520000000       35.9230000000        9.4440000000
C                14.2640000000       37.1930000000       10.7350000000
C                12.3350000000       35.1660000000       10.5670000000
C                13.9520000000       36.4200000000       11.8650000000
C                12.9800000000       35.4230000000       11.7830000000
H                11.5330000000       37.7970000000        7.2320000000
H                12.6870000000       39.4490000000        9.3510000000
H                13.7600000000       37.3410000000        7.4210000000
H                14.8440000000       38.2980000000        8.4310000000
H                12.1530000000       35.7480000000        8.5030000000
H                15.0040000000       37.9770000000       10.7920000000
H                11.5920000000       34.3890000000       10.4970000000
H                14.4730000000       36.6070000000       12.7900000000
H                12.7280000000       34.8520000000       12.6630000000
N                13.1820000000       39.9990000000        6.1550000000
C                13.7380000000       40.9860000000        5.1960000000
C                13.0180000000       42.3220000000        5.3840000000
O                13.6050000000       43.4170000000        5.4420000000
C                13.4960000000       40.3880000000        3.8040000000
C                14.2940000000       41.0140000000        2.6920000000
C                14.1160000000       40.1790000000        1.3290000000
O                13.0410000000       39.5520000000        1.1830000000
O                15.0640000000       40.2170000000        0.5420000000
H                12.7950000000       39.1530000000        5.7580000000
H                14.8070000000       41.1340000000        5.3920000000
H                13.7480000000       39.3240000000        3.8490000000
H                12.4300000000       40.4590000000        3.5670000000
H                13.9610000000       42.0320000000        2.4740000000
H                15.3620000000       41.0390000000        2.9060000000
N                11.6710000000       42.2860000000        5.5440000000
C                10.9630000000       43.5500000000        5.6400000000
C                11.2650000000       44.2950000000        6.9000000000
O                11.1380000000       45.5390000000        7.0070000000
C                 9.4930000000       43.1990000000        5.6220000000
C                 9.0610000000       42.9050000000        4.1740000000
O                 9.8020000000       43.0600000000        3.2060000000
N                 7.8250000000       42.4190000000        4.0600000000
H                11.1470000000       41.4370000000        5.3740000000
H                11.2090000000       44.1860000000        4.7750000000
H                 9.3140000000       42.3090000000        6.2210000000
H                 8.8850000000       44.0190000000        6.0120000000
H                 7.5170000000       42.1020000000        3.1540000000
H                 7.3290000000       42.1070000000        4.8880000000
N                11.6630000000       43.4990000000        7.9290000000
C                11.9210000000       44.0630000000        9.2700000000
C                13.1890000000       44.9400000000        9.2470000000
O                13.3570000000       45.8250000000       10.0870000000
C                12.0680000000       42.9480000000       10.2970000000
C                12.0900000000       43.4780000000       11.7710000000
C                10.6840000000       43.7900000000       12.2940000000
N                10.7750000000       44.4200000000       13.6030000000
C                10.4180000000       43.9550000000       14.7940000000
N                 9.7780000000       42.8010000000       14.9420000000
N                10.7950000000       44.6180000000       15.9030000000
H                11.6770000000       42.4980000000        7.8170000000
H                11.0810000000       44.7180000000        9.5240000000
H                11.2380000000       42.2510000000       10.1760000000
H                12.9990000000       42.4160000000       10.0910000000
H                12.5520000000       42.7240000000       12.4060000000
H                12.7000000000       44.3810000000       11.8090000000
H                10.1720000000       44.4840000000       11.6210000000
H                10.0850000000       42.8820000000       12.3610000000
H                11.2570000000       45.3190000000       13.6010000000
H                 9.1280000000       42.5390000000       14.2120000000
H                 9.5050000000       42.6000000000       15.9010000000
H                11.0940000000       45.5710000000       15.7870000000
H                10.3220000000       44.3580000000       16.7670000000
N                 9.3730000000       37.3430000000       16.0800000000
C                 8.7850000000       37.2280000000       14.7070000000
C                 8.2650000000       35.8090000000       14.4540000000
O                 7.1940000000       35.6060000000       13.8450000000
C                 9.8210000000       37.6640000000       13.6860000000
C                10.0140000000       39.2100000000       13.7440000000
C                 9.5170000000       37.2200000000       12.2620000000
C                11.2610000000       39.5840000000       12.9410000000
H                10.3670000000       37.5080000000       16.1890000000
H                 7.9050000000       37.8830000000       14.6600000000
H                10.7670000000       37.1960000000       13.9870000000
H                 9.1330000000       39.7020000000       13.3310000000
H                10.1490000000       39.5070000000       14.7830000000
H                10.3800000000       37.3740000000       11.6220000000
H                 9.2630000000       36.1650000000       12.2290000000
H                 8.6780000000       37.7820000000       11.8560000000
H                11.5030000000       40.6330000000       13.1000000000
H                12.1080000000       38.9750000000       13.2470000000
H                11.1030000000       39.4490000000       11.8750000000
N                -0.0370000000       37.4750000000       13.2430000000
C                 0.9880000000       38.5110000000       12.9640000000
C                 2.4050000000       37.9660000000       13.0290000000
O                 3.3450000000       38.5040000000       12.4180000000
H                -0.3090000000       36.8490000000       12.4810000000
H                 0.8220000000       38.9540000000       11.9800000000
H                 0.8700000000       39.3030000000       13.7110000000
N                 2.5310000000       36.8580000000       13.7270000000
C                 3.8560000000       36.1480000000       13.8030000000
C                 3.8110000000       34.9900000000       12.7720000000
O                 2.7600000000       34.6290000000       12.2320000000
C                 4.1150000000       35.6270000000       15.2030000000
O                 3.1890000000       34.5450000000       15.4740000000
C                 4.1270000000       36.6980000000       16.2680000000
H                 1.7370000000       36.4340000000       14.1840000000
H                 4.6070000000       36.8800000000       13.5050000000
H                 5.0930000000       35.1280000000       15.1800000000
H                 2.3380000000       34.9490000000       15.7190000000
H                 4.1300000000       36.2200000000       17.2440000000
H                 5.0180000000       37.3080000000       16.1660000000
H                 3.2420000000       37.3280000000       16.1870000000
N                 4.9830000000       34.4110000000       12.4710000000
C                 5.0060000000       33.2910000000       11.5240000000
C                 4.1130000000       32.1630000000       12.0350000000
O                 3.2900000000       31.6220000000       11.2850000000
C                 6.4610000000       32.8060000000       11.2590000000
C                 7.1420000000       33.9240000000       10.4760000000
C                 6.4140000000       31.4910000000       10.4500000000
C                 8.6820000000       33.7920000000       10.3980000000
H                 5.8450000000       34.7370000000       12.9020000000
H                 4.5570000000       33.6320000000       10.5810000000
H                 6.9490000000       32.6330000000       12.2190000000
H                 6.7270000000       33.9330000000        9.4660000000
H                 6.9090000000       34.8910000000       10.9260000000
H                 7.4240000000       31.1440000000       10.2520000000
H                 5.8880000000       30.7160000000       10.9990000000
H                 5.9060000000       31.6500000000        9.5040000000
H                 9.0670000000       34.4460000000        9.6200000000
H                 9.1110000000       34.1070000000       11.3400000000
H                 8.9770000000       32.7690000000       10.1930000000
N                 0.3760000000       32.9750000000       12.1130000000
C                -0.2420000000       33.0640000000       10.8060000000
C                -0.3110000000       31.7450000000       10.0480000000
O                -1.2030000000       31.5850000000        9.1900000000
C                 0.5510000000       34.0540000000        9.9500000000
C                 0.3870000000       35.5080000000       10.3900000000
O                -0.5810000000       35.8140000000       11.1300000000
O                 1.2120000000       36.3070000000        9.9230000000
H                 1.3780000000       33.1140000000       12.1550000000
H                -1.2610000000       33.4460000000       10.9470000000
H                 1.6140000000       33.8070000000        9.9770000000
H                 0.2230000000       33.9870000000        8.9090000000
N                 0.6280000000       30.8390000000       10.3270000000
C                 0.8170000000       29.6990000000        9.4420000000
C                 0.7900000000       28.3160000000       10.1270000000
O                 0.8070000000       27.3240000000        9.4000000000
C                 2.1940000000       29.8380000000        8.7280000000
C                 2.2120000000       30.9970000000        7.7820000000
C                 1.2020000000       31.2000000000        6.8300000000
C                 3.2300000000       31.9250000000        7.8480000000
C                 1.2610000000       32.3320000000        6.0350000000
C                 3.3060000000       33.0280000000        7.0290000000
C                 2.3030000000       33.2370000000        6.1060000000
H                 1.4310000000       31.1330000000       10.8750000000
H                 0.0070000000       29.6950000000        8.7070000000
H                 2.9640000000       29.9720000000        9.4890000000
H                 2.3740000000       28.9080000000        8.1850000000
H                 0.3820000000       30.5060000000        6.7230000000
H                 3.9970000000       31.7720000000        8.5950000000
H                 0.4810000000       32.4810000000        5.2960000000
H                 4.1290000000       33.7190000000        7.1100000000
H                 2.3190000000       34.0940000000        5.4520000000
O                 0.8040000000       38.7300000000        9.1830000000
H                 1.4150000000       38.2360000000        9.7400000000
H                 1.3030000000       39.4320000000        8.7540000000
O                 8.1490000000       41.7800000000        8.8720000000
H                 9.0220000000       41.3100000000        8.7670000000
H                 8.3430000000       42.7350000000        8.9870000000
O                 5.4840000000       37.4810000000        4.8830000000
H                 6.2410000000       36.8610000000        4.9150000000
H                 5.7810000000       38.2570000000        4.4030000000
O                10.5810000000       40.8110000000        1.2810000000
H                11.4510000000       40.4140000000        1.1070000000
H                10.7460000000       41.5860000000        1.8320000000
O                 2.9690000000       31.1000000000        0.5260000000
H                 3.6560000000       30.4230000000        0.5890000000
H                 3.1180000000       31.5150000000       -0.3270000000
O                 3.3670000000       40.4510000000       10.4780000000
H                 3.9450000000       41.2010000000       10.7010000000
H                 2.5850000000       40.8780000000       10.1130000000
O                 6.1130000000       38.1350000000       11.4670000000
H                 6.3980000000       37.6560000000       12.2530000000
H                 5.3810000000       38.7050000000       11.7260000000
O                 2.7130000000       36.7510000000        4.8790000000
H                 3.6440000000       36.9400000000        4.6700000000
H                 2.2310000000       37.5670000000        4.7130000000
O                 6.4990000000       41.7190000000        6.7470000000
H                 7.1100000000       41.6570000000        7.5190000000
H                 6.2280000000       42.6400000000        6.7360000000
O                 3.4950000000       41.3560000000        6.5830000000
H                 4.4540000000       41.3280000000        6.7010000000
H                 3.1370000000       41.7930000000        7.3600000000
O                 5.3251372462       31.7075786727       -1.2810000000
H                 6.1039493315       31.1526365714       -1.1070000000
H                 4.7364675582       31.1771844811       -1.8320000000
O                 3.5106161711       28.7824213662       -1.9140000000
H                 4.0724827020       28.9532399875       -1.0970000000
H                 3.2025821595       29.6299519247       -2.2740000000
O                 7.0017300684       40.6776347210       11.1820000000
H                 6.3017429554       41.3300479654       11.3010000000
H                 7.4640177611       40.9549289496       10.3690000000
O                -1.3101534011       37.5717346839        6.5830000000
H                -1.8139021124       36.7552163217        6.7010000000
H                -0.7527002996       37.6632717785        7.3600000000
O                 1.0280948905       32.6236995258        2.2080000000
H                 1.3826953591       31.7838855537        1.8980000000
H                 1.2967506804       33.2630250036        1.5380000000
O                 1.5407963828       35.2837245594        2.8010000000
H                 1.1493822627       34.4577754166        3.0930000000
H                 1.9293796853       35.6967705823        3.5930000000
N                12.3558492197       37.4780283211       -0.8200000000
C                11.0965476290       36.8572026583       -0.4270000000
C                10.0960600104       36.8880980461       -1.5560000000
O                 9.4748935905       35.8839898454       -1.9830000000
H                12.7487823927       38.1494481016       -0.1700000000
H                11.2590919502       35.8136676356       -0.1020000000
H                10.7117559778       37.3936813486        0.4450000000
N                 9.7951785207       38.0792400734       -2.0480000000
C                 8.7811094863       38.1796591632       -3.1190000000
C                 9.1099806665       37.3880375700       -4.3750000000
O                 8.1956277131       36.8497433414       -5.0100000000
C                 8.7898150726       39.7065806454       -3.4230000000
C                 9.3143052687       40.3881369778       -2.1740000000
C                10.1962039244       39.3846436989       -1.4490000000
H                 7.8144860063       37.8479001423       -2.7270000000
H                 9.4647482456       39.8895620981       -4.2600000000
H                 7.8019799759       40.0715612225       -3.6900000000
H                 9.8428165893       41.3087285180       -2.4070000000
H                 8.4835464328       40.6590534903       -1.5210000000
H                11.2559613790       39.5530899438       -1.6440000000
H                10.0029796058       39.3793180360       -0.3780000000
N                 8.5661747967       33.7739369660       -3.7990000000
C                 7.1425693584       33.4496939150       -3.7460000000
C                 6.5744156404       33.3537650212       -5.1330000000
O                 5.6004268256       32.6147631344       -5.2920000000
C                 6.3306033700       34.5420602609       -3.0470000000
O                 6.4506725894       34.4300942725       -1.6590000000
H                 8.9437778426       34.4619093053       -3.1610000000
H                 6.9753656589       32.5032992178       -3.2130000000
H                 6.6732993374       35.5204934339       -3.4090000000
H                 5.2710779662       34.3772120922       -3.2520000000
H                 7.3295236560       34.7238795728       -1.3950000000
N                 7.3288498740       29.8610465975       -6.1550000000
C                 6.7520828005       28.8860364730       -5.1960000000
C                 5.2350728610       28.8415747637       -5.3840000000
O                 4.5802750439       27.7857178517       -5.4420000000
C                 7.1489659920       29.3946146207       -3.8040000000
C                 7.0058340892       28.3905263485       -2.6920000000
C                 7.6399653013       28.9621788704       -1.3290000000
O                 7.6454632295       30.2066561794       -1.1830000000
O                 8.0810563360       28.1221867876       -0.5420000000
H                 7.8680073656       30.6191984287       -5.7580000000
H                 7.1584110407       27.8862553163       -5.3920000000
H                 8.1964170216       29.7083762189       -3.8490000000
H                 6.5544781883       30.2822977011       -3.5670000000
H                 5.9577202281       28.1699128079       -2.4740000000
H                 7.5181834541       27.4531112172       -2.9060000000
N                 4.5927497756       30.0261109826       -5.5440000000
C                 3.1440936652       30.0072569685       -5.6400000000
C                 2.6499047394       29.3732172965       -6.9000000000
O                 1.5090691371       28.8612025228       -7.0070000000
C                 2.7130685819       31.4558143120       -5.6220000000
C                 2.7516800506       31.9769372865       -4.1740000000
O                 2.9879461130       31.2577124623       -3.2060000000
N                 2.5545683969       33.2903446856       -4.0600000000
H                 5.0660053434       30.9044082942       -5.3740000000
H                 2.7163015084       29.4762147192       -4.7750000000
H                 3.3943311913       32.0558328593       -6.2210000000
H                 1.6989277508       31.5723577575       -6.0120000000
H                 2.6750984499       33.7155805099       -3.1540000000
H                 2.5767683228       33.8758932858       -4.8880000000
H                 4.9509758300       25.8449438573        1.9706170999
H                13.8858007961       44.7932074791        8.5449169520
H                 8.9876269023       38.0300369972       16.5152789222
H                 8.7863626561       35.0200439976       14.7791605866
H                 0.2558675076       36.9312503487       13.8976487148
H                 4.1899011514       31.8549436711       12.9832549821
H                 0.0211835208       33.5987378439       12.6561909132
H                 0.7599238443       28.2526112327       11.1245356079
H                12.9836302895       36.8421447680       -0.9274385189
H                10.0586611094       37.3064601666       -4.6805332133
H                 9.0494645541       33.0322921104       -3.6365379473
H                 6.9861444561       33.8768105397       -5.8792591827
H                 7.8842705844       29.4341004012       -6.7199998053
H                 3.2374869385       29.3435421816       -7.7086201499
