 120 
 
N                 2.6722408995       21.5142245003       -2.9157647563
C                 2.8129095928       20.5303365713       -1.8597201578
C                 3.0096329142       19.1325588168       -2.4601798936
O                 2.7152250046       18.9016009958       -3.6289509799
C                 1.4572346725       20.6076640322       -1.1491401508
C                 0.4844568326       20.8802344979       -2.2917339062
C                 1.2740510241       21.7997987912       -3.2182280499
H                 3.6270305057       20.7751107712       -1.1759981135
H                 1.2256565095       19.6926901048       -0.6115296674
H                 1.4835582660       21.4446599984       -0.4528823958
H                 0.2469832736       19.9440277692       -2.7959505904
H                -0.4385374411       21.3407179375       -1.9504001644
H                 1.0772757257       21.6040614649       -4.2738718239
H                 1.0766286831       22.8557650265       -3.0069013262
N                 3.5022268618       18.2001596119       -1.6321668951
C                 3.5316757176       16.8260980747       -2.1080115180
C                 2.1551302297       16.5092738175       -2.7031410516
O                 1.1240236624       16.8684226441       -2.1408718997
C                 3.8646627869       15.8496454824       -0.9847958291
C                 5.3524374652       15.8485825110       -0.6224299054
C                 5.5421518274       15.1099753631        0.7006254407
C                 6.1875737092       15.1986515044       -1.7245405594
H                 3.4425155795       18.3640361200       -0.6328491964
H                 4.2831981259       16.7876108944       -2.9011260950
H                 3.2624215799       16.1224058636       -0.1151229979
H                 3.5587604613       14.8427391414       -1.2810663271
H                 5.6685262340       16.8895375634       -0.5081161079
H                 6.5883715673       15.0996830693        0.9880266584
H                 4.9611397902       15.5890271823        1.4842603628
H                 5.1989219949       14.0819714874        0.6056632007
H                 7.2286794080       15.1447326441       -1.4223623988
H                 5.8375204348       14.1870203590       -1.9213029518
H                 6.1299258464       15.7652201876       -2.6511923703
N                 2.1503142926       15.8374480660       -3.8645010640
C                 3.2429710571       15.0681204110       -4.4283623285
C                 4.2737747998       15.8257611621       -5.2766804711
O                 5.1967257857       15.1984904377       -5.7814908514
C                 2.5292267781       14.0460966916       -5.3315658622
C                 1.3090495811       14.8223472394       -5.8167383539
C                 0.8953179413       15.5939152728       -4.5702440437
H                 3.8100697192       14.5574984261       -3.6436866328
H                 3.1771193100       13.7093664746       -6.1374301717
H                 2.2176155558       13.1860231998       -4.7400126392
H                 1.5911562066       15.5112493685       -6.6124532420
H                 0.5133344325       14.1739982469       -6.1729990277
H                 0.4076953185       16.5466368008       -4.7849440945
H                 0.2276001955       15.0042375900       -3.9335625917
N                 4.0924928139       17.1374388770       -5.4768761420
C                 5.0244089856       17.8451927345       -6.3217639047
C                 6.1570540058       18.4912382035       -5.5167525561
O                 6.0881140052       18.6637936098       -4.3096518763
C                 4.3081747629       18.9051708033       -7.1668154948
O                 5.0741182503       19.1256551686       -8.3275472936
H                 3.4446423334       17.6816543777       -4.9103833394
H                 5.4606803395       17.1013723813       -7.0001817894
H                 3.3104742322       18.5335469740       -7.4302303401
H                 4.1884184961       19.8343548918       -6.5923170168
H                 4.5799519769       19.7493926745       -8.8816987690
N                 7.2176458411       18.8253227180       -6.2665575190
C                 8.3582195711       19.5637200713       -5.7503069306
C                 8.4096913228       20.9288512352       -6.4520494854
O                 7.4152568166       21.6486959635       -6.4217482298
C                 9.6395785829       18.7332360720       -5.7937815200
C                 9.6110744457       17.5895076085       -4.7732309435
C                11.0353465504       17.1375808301       -4.4494023316
C                11.0845408595       16.0712684524       -3.3588189240
N                12.4328422019       16.0555868173       -2.7491790095
H                 7.1298616650       18.7333541218       -7.2697627198
H                 8.1143654045       19.7851089484       -4.7006364998
H                 9.7971850992       18.3355753484       -6.7972212336
H                10.4708350584       19.3874617872       -5.5309551200
H                 9.1321250529       17.9462681476       -3.8601928841
H                 9.0186598354       16.7575485579       -5.1535657262
H                11.5145316816       16.7716660715       -5.3576105059
H                11.5959564878       18.0055786122       -4.0957822075
H                10.3664807219       16.3161640794       -2.5760631422
H                10.8438071752       15.0886189336       -3.7664777181
H                12.5124130589       15.3284412207       -2.0351108146
H                13.1583068923       15.9251060538       -3.4579002153
H                12.6142266527       17.0510328392       -2.2453599672
N                 2.8395614858       18.5644904851        4.7591885440
C                 3.4661980725       18.8159909004        3.4768277469
C                 2.5840130340       18.4072713335        2.2895361207
O                 2.8971643543       18.7183071210        1.1529248103
C                 4.8469675020       18.1649092848        3.3933081304
C                 5.8454405155       18.8094916883        4.3600403168
C                 7.2780818665       18.4496471413        3.9707540211
C                 8.2931731867       19.0366252381        4.9501698476
N                 9.6546908514       18.9858816292        4.3644495601
H                 3.2892273078       17.9060891745        5.3818681991
H                 3.5837127672       19.9039861667        3.3576074146
H                 4.7599010418       17.0966472785        3.5948336222
H                 5.1967643142       18.2924952958        2.3677204030
H                 5.7361650277       19.8946881746        4.3246726028
H                 5.6529496512       18.4891814666        5.3849111336
H                 7.3817533673       17.3649813045        3.9413149640
H                 7.4698360564       18.8456981025        2.9722128889
H                 8.0568831572       20.0769725319        5.1773238123
H                 8.2859142956       18.4785856395        5.8876999724
H                10.4415938614       18.9661329076        5.1397892570
H                 9.7819754107       18.1170301710        3.8358923888
H                 9.8238490316       19.7906126805        3.7560027102
N                 1.4556276722       17.7356466936        2.5745072082
C                 0.4297804025       17.5086839869        1.5778303257
C                -0.4191569986       18.7695740211        1.3340704554
O                -1.2685606881       18.7826944204        0.4543298062
C                -0.4492603047       16.3108807494        1.9799780888
C                -0.8956936651       15.4441113456        0.7953760286
O                -0.6455599018       14.2475024790        0.7568925895
N                -1.6054040737       16.0834606176       -0.1337465217
H                 1.2408189749       17.4836839487        3.5284512419
H                 0.9265740922       17.2917843451        0.6214525977
H                 0.1198159854       15.6544847633        2.6395632534
H                -1.3430238960       16.6501675497        2.5065730310
H                -1.6789819498       17.0976626334       -0.1206325275
H                -1.8829733900       15.5831168477       -0.9620790445
H                 3.3277624420       22.1268171505       -2.8449004338
H                 9.2431826671       21.2178576936       -6.9229713961
H                 2.7895624932       19.3329456926        5.2249961167
H                -0.2775980634       19.5841107452        1.8966457775
