 105 
 
N                25.6696390491       31.4796479745       93.0753921758
C                25.9101330333       32.8670487634       92.7260582038
C                26.0228270438       33.6959205410       93.9970063730
O                25.3045860163       33.4463392664       94.9548248854
C                24.7400571952       33.4819381522       91.9424661255
C                25.2165172235       34.7114527423       91.2069445561
C                24.1123561694       35.5430324558       90.4765824786
O                22.9289643365       35.2016457481       90.5737555266
O                24.5922872121       36.5266647213       89.8620268931
H                25.6102820933       31.2477109493       94.0684592995
H                26.8271271145       32.9204363956       92.1294382253
H                24.3552246299       32.7715708116       91.2129325546
H                23.9252540440       33.7350075398       92.6234615555
H                25.6894761731       35.4306099129       91.8797551506
H                25.9377908390       34.4230544680       90.4423717649
N                26.9030091506       34.6971796779       93.9901006994
C                27.2040233295       35.5677527786       95.1120426339
C                26.8929112035       37.0031048027       94.7158515271
O                27.0506684564       37.3420215863       93.5482124749
C                28.7148836493       35.4066270993       95.4015396529
O                29.0334027945       34.0629483140       95.6683725101
C                29.1660201286       36.3544233287       96.4949019342
H                27.4084637922       34.9063561893       93.1423553944
H                26.5889619797       35.2626364693       95.9596801116
H                29.2425880780       35.6329123766       94.4641040450
H                28.7477124389       33.8310221003       96.5687497368
H                30.2114516031       36.1609548826       96.7210294888
H                29.0501834394       37.3862689215       96.1789493985
H                28.5630496627       36.1826412904       97.3835747661
N                26.5047648797       37.8483107703       95.6667767142
C                26.1230297105       39.2091618675       95.3459581880
C                26.9576705344       40.2730723030       96.1739064733
O                26.4728678077       41.3934830599       96.3622271672
C                24.6143061597       39.4382049466       95.5320508138
C                23.8016007329       38.3872158101       94.8447709643
C                23.2903847692       38.5755627058       93.5718880785
C                23.5647923610       37.1657818984       95.4606646813
C                22.6073399167       37.5609927022       92.9216221790
C                22.8826357386       36.1486766123       94.8140015261
C                22.4108740938       36.3352722159       93.5326978723
O                28.0818746206       39.8715618658       96.5791864279
H                26.3602157639       37.5115341428       96.6101137366
H                26.3847437669       39.3560579660       94.2908570746
H                24.3872312739       39.4264364909       96.6018905281
H                24.3888942358       40.4329448112       95.1492173788
H                23.4529817905       39.5172032727       93.0627643025
H                23.9136064310       37.0036900593       96.4708752066
H                22.2534973391       37.7158086576       91.9114012005
H                22.7300262900       35.2075682869       95.3208344243
H                21.9083729873       35.5498695498       92.9885392873
N                24.5657069752       36.3279543648      101.3085410250
C                25.0360039563       36.9402177783      100.0869583131
C                25.5890579476       35.9126746390       99.1038680494
O                26.2953686017       36.2514330627       98.1667344524
C                26.0529837994       38.0665438204      100.3473021089
C                27.2954205217       37.5779820002      101.1063919666
C                28.4791280867       38.5500551199      101.0179972066
C                29.0119239436       38.6953726340       99.5755278929
N                28.8925684579       40.0838203416       99.0376487973
H                25.1423438729       35.6134086966      101.7405458369
H                24.1511018472       37.3920884338       99.6106647788
H                26.3204641708       38.4699336384       99.3692434552
H                25.5431255033       38.8435080290      100.9177107944
H                27.0216708547       37.4475234620      102.1515484803
H                27.6020032382       36.6090628755      100.7068905478
H                28.1553667960       39.5174035896      101.4023864687
H                29.2675386180       38.1849920279      101.6734144449
H                30.0589142450       38.4046172200       99.5208513651
H                28.4509493566       38.0357517247       98.9138614031
H                28.6516672278       40.0733429430       97.9749108742
H                28.1124632681       40.5719535058       99.4891013027
H                29.7505014499       40.6199327327       99.1929910429
N                25.2336327836       34.6296230507       99.2709983182
C                25.9626269519       33.5888079908       98.5542057396
C                25.0352349653       32.3495886464       98.3798888294
O                24.9398030654       31.4951735122       99.2639135501
C                27.2612584496       33.3090032836       99.3425981337
O                28.3761142268       33.2242054328       98.4986308506
H                24.7972259094       34.3514186281      100.1375018000
H                26.2214974888       33.9737746613       97.5648175547
H                27.3949875194       34.1276782768      100.0631686784
H                27.1204603384       32.3854275077       99.9167573974
H                29.1506239656       32.9973161964       99.0307262357
N                24.3013517995       32.3122929159       97.2566359533
C                23.5646557594       31.1094082708       96.8780290914
C                24.5911152409       30.0983013337       96.3765597095
O                25.5112514292       30.4530924240       95.6542679151
C                22.6099958469       31.3726109508       95.7390669169
C                21.4305959234       32.2573860264       96.1315633692
C                20.8342265312       32.8633626386       94.8599340621
C                20.3770594636       31.4443542238       96.8607013565
H                24.5671662235       32.9105917250       96.4800195488
H                23.0581296924       30.7283016425       97.7697088509
H                23.1808285252       31.8568891757       94.9420243844
H                22.2354987726       30.4218046077       95.3544698909
H                21.7928085892       33.0763351980       96.7571944987
H                20.0909966232       33.6126650462       95.1050050150
H                21.6055038677       33.3502001550       94.2655296041
H                20.3773965201       32.0850227881       94.2512698353
H                19.5163933474       32.0590158601       97.1068445828
H                20.0442338908       30.6268360076       96.2307360331
H                20.7686176188       31.0358419667       97.7904115071
H                24.8867034878       31.2120490518       92.7212697065
H                24.4661536454       36.9593877076      101.9420874466
H                24.5144896786       29.1362356405       96.6383957752
