 73 
 
N                65.6244918308       88.0894175026      113.2316448417
C                66.3976556332       88.4730304465      114.3483009223
C                66.8367926782       87.2956563943      115.1624895595
O                66.1201233109       86.4055693414      115.4312496915
C                65.7286362721       89.5069940166      115.1893635683
S                66.7035645496       90.3534685277      116.5363375639
H                64.7262557218       88.3880389152      113.2314209683
H                67.2854414934       88.9520109945      113.9406577965
H                65.3001941453       90.2761988162      114.5665182565
H                64.8603411925       89.0523957420      115.6303633300
H                66.3302522966       91.4055598184      116.9764987592
N                68.0669080891       87.3219375185      115.6757100370
C                68.5247637689       86.4628687654      116.6846375585
C                68.2316893357       86.9576089098      118.1179334231
O                67.9180033904       86.1923471830      119.0324949955
C                69.9255639561       86.0607506130      116.4360624630
C                70.2466541452       85.4988455510      115.0991394022
O                69.3588750895       84.7669162233      114.5450094319
O                71.3028051258       85.7604050704      114.5666551852
H                68.7387058948       87.9805690229      115.3953148445
H                67.9067248658       85.5815241993      116.6067818228
H                70.5574409917       86.8988288867      116.6456132642
H                70.2408453728       85.3503691710      117.2121030787
N                68.3345425703       88.2652392505      118.3327541438
C                68.3165465660       88.9086281018      119.6650786595
C                67.1236389723       88.6097198079      120.5139727003
O                67.1295300611       89.0876392967      121.6434451255
H                68.3502654820       88.8579008428      117.6388018899
H                69.1373463640       88.7799415161      119.9628694526
H                68.3513071729       89.9128912518      119.4491551227
N                66.0937098512       87.9481390502      120.0699987575
C                64.9875911331       87.6044378907      120.7922286600
C                63.6616139080       87.5683522429      120.1758093284
O                62.9895918319       86.5475553956      120.1144400285
H                66.0623671148       87.6253700304      119.1332103341
H                65.1507147051       86.6254949201      121.2389079595
H                64.9623951010       88.2397903890      121.6606280998
N                70.9972441683       90.9817700452      115.1023160084
C                70.1644465124       91.4755036225      116.2059934248
C                69.5023412182       92.6857329522      115.7107166873
O                70.2030456644       93.6135139077      115.1345761856
C                71.2282455293       91.8968623835      117.3527765982
C                72.0201439332       90.5480739205      117.7507963760
C                70.3362453534       92.3088699672      118.5458237945
C                73.3757182215       90.5249936567      116.9321595650
H                71.7465811234       91.4252290358      114.9144826042
H                69.7302507668       90.9629337760      116.4839933194
H                71.8760172581       92.6717417211      117.0932428094
H                72.3121721811       90.7364379496      118.6657026731
H                71.5447546212       89.8304258696      117.6182650435
H                70.9310277702       92.4942740142      119.3137825415
H                69.8879087571       93.1186532077      118.3596908649
H                69.7240797129       91.6289173144      118.8128796552
H                73.8140788223       89.6858643126      117.2863941010
H                73.2266107528       90.4212517973      116.0491332506
H                73.9189163770       91.3041615894      117.1604418822
N                66.2140815519       94.5366481014      119.8303475969
C                66.9252308763       93.5378943198      120.4586790438
C                68.3480465046       93.8506248321      120.7810096216
O                69.0425813951       93.0981296760      121.4177121959
C                66.8150678250       92.2493528729      119.7282080514
S                65.2258964892       91.6878578273      119.4158904798
H                66.1413362878       94.3946912564      118.8307182256
H                66.4286487575       93.4094994582      121.4094344952
H                67.3501388171       92.3481770952      118.7998186607
H                67.3823076798       91.4809285905      120.2410521372
H                65.0344647359       90.8797972266      118.5496388135
H                65.9983852234       88.4158941349      112.4809007178
H                63.2701199662       88.4003808537      119.7827942087
H                71.2614964469       90.1397276636      115.2787681575
H                68.5139802044       92.7942116683      115.8173697437
H                65.3794324114       94.5676754839      120.1656058761
H                68.7551362533       94.7081505904      120.4664821818
