 297 
 
N                24.2470000000       45.9280000000       16.0670000000
C                23.8680000000       45.5030000000       14.6960000000
C                24.5590000000       44.2200000000       14.1820000000
O                24.1330000000       43.7840000000       13.1240000000
C                24.1370000000       46.6560000000       13.7060000000
O                25.4150000000       47.1370000000       14.0340000000
H                25.1940000000       46.3540000000       16.0080000000
H                23.5970000000       46.6630000000       16.3730000000
H                24.1950000000       45.0820000000       16.7300000000
H                22.7970000000       45.2720000000       14.6590000000
H                24.0880000000       46.2790000000       12.6800000000
H                23.3710000000       47.4350000000       13.8080000000
H                25.6780000000       47.8480000000       13.4430000000
N                25.5310000000       43.6130000000       14.8890000000
C                26.2620000000       42.4640000000       14.3340000000
C                25.8500000000       41.0980000000       14.9100000000
O                26.4530000000       40.0980000000       14.5470000000
C                27.7430000000       42.5430000000       14.6490000000
C                28.2000000000       43.8440000000       14.0620000000
O                28.3620000000       44.8390000000       14.7490000000
N                28.2940000000       43.8010000000       12.7310000000
H                26.0480000000       44.1160000000       15.6000000000
H                26.0750000000       42.4230000000       13.2540000000
H                27.9220000000       42.5130000000       15.7230000000
H                28.2480000000       41.6980000000       14.1880000000
H                28.0730000000       42.9760000000       12.2010000000
H                28.5260000000       44.6350000000       12.2140000000
N                24.9590000000       41.0920000000       15.9030000000
C                24.4450000000       39.8180000000       16.4040000000
C                23.8780000000       39.0080000000       15.2380000000
O                23.2930000000       39.5910000000       14.3300000000
C                23.2970000000       40.1750000000       17.3390000000
C                22.7640000000       38.9240000000       18.1050000000
C                21.8440000000       39.3950000000       19.2210000000
O                22.3030000000       40.1500000000       20.1270000000
O                20.6690000000       38.9920000000       19.1990000000
H                24.3500000000       41.8960000000       16.0130000000
H                25.2420000000       39.2730000000       16.9100000000
H                23.6660000000       40.8700000000       18.0920000000
H                22.4870000000       40.6380000000       16.7730000000
H                22.2150000000       38.2530000000       17.4490000000
H                23.6010000000       38.3810000000       18.5470000000
N                24.0370000000       37.6750000000       15.3450000000
C                23.4360000000       36.8150000000       14.3300000000
C                22.5860000000       35.7280000000       14.9680000000
O                22.8210000000       35.2530000000       16.0720000000
C                24.5750000000       36.1200000000       13.5600000000
C                25.3950000000       37.1390000000       12.7840000000
C                26.6760000000       36.5060000000       12.2420000000
O                27.1240000000       35.4440000000       12.6820000000
N                27.2270000000       37.1630000000       11.2430000000
H                24.5710000000       37.2540000000       16.1040000000
H                22.8420000000       37.4420000000       13.6640000000
H                25.2120000000       35.5850000000       14.2620000000
H                24.1610000000       35.3860000000       12.8690000000
H                24.8290000000       37.5520000000       11.9500000000
H                25.6920000000       37.9690000000       13.4290000000
H                26.8690000000       38.0560000000       10.9230000000
H                28.1010000000       36.8430000000       10.8470000000
N                16.3710000000       43.1380000000        8.8790000000
C                17.5170000000       42.2850000000        9.2060000000
C                18.2330000000       41.8780000000        7.9500000000
O                17.6740000000       41.9210000000        6.8470000000
C                17.0410000000       41.0100000000        9.9420000000
C                16.5730000000       41.3330000000       11.3330000000
C                17.4200000000       41.9480000000       12.2150000000
C                15.2790000000       41.0360000000       11.7570000000
C                17.0330000000       42.2630000000       13.5230000000
C                14.8950000000       41.3410000000       13.0590000000
C                15.7510000000       41.9730000000       13.9350000000
H                15.4980000000       42.6960000000        8.6280000000
H                18.1900000000       42.8660000000        9.8410000000
H                16.2440000000       40.5510000000        9.3540000000
H                17.8860000000       40.3190000000        9.9950000000
H                18.4280000000       42.1710000000       11.8970000000
H                14.5850000000       40.5560000000       11.0850000000
H                17.7250000000       42.7470000000       14.1960000000
H                13.8980000000       41.0810000000       13.3830000000
H                15.4320000000       42.2200000000       14.9360000000
N                19.5380000000       41.5140000000        8.1040000000
C                20.3470000000       41.3020000000        6.9280000000
C                20.5690000000       39.8060000000        6.7540000000
O                21.0500000000       39.1330000000        7.6840000000
C                21.7280000000       41.9730000000        7.0910000000
C                22.6550000000       41.7090000000        5.8830000000
C                23.9380000000       42.5470000000        5.8890000000
C                24.6840000000       42.4980000000        7.2010000000
N                25.9780000000       43.2180000000        7.1170000000
H                19.9800000000       41.4870000000        9.0190000000
H                19.8030000000       41.6960000000        6.0680000000
H                21.5670000000       43.0430000000        7.2050000000
H                22.1770000000       41.5740000000        8.0020000000
H                22.9040000000       40.6450000000        5.8630000000
H                22.1030000000       41.9120000000        4.9650000000
H                24.5790000000       42.1840000000        5.0850000000
H                23.6730000000       43.5810000000        5.6640000000
H                24.0880000000       42.9680000000        7.9850000000
H                24.8780000000       41.4610000000        7.4800000000
H                26.4290000000       43.2140000000        8.0390000000
H                26.5980000000       42.7460000000        6.4260000000
H                25.8110000000       44.1820000000        6.7750000000
N                21.2560000000       38.8010000000       10.5100000000
C                22.1410000000       39.5930000000       11.3300000000
C                21.4280000000       40.9350000000       11.5720000000
O                20.8910000000       41.5240000000       10.6270000000
C                23.4310000000       39.9090000000       10.5400000000
C                24.4440000000       40.6950000000       11.3960000000
C                25.7720000000       40.8640000000       10.6400000000
O                26.3300000000       39.8120000000       10.2920000000
O                26.2240000000       42.0040000000       10.4100000000
H                21.1080000000       39.1080000000        9.5490000000
H                22.3520000000       39.0740000000       12.2620000000
H                23.8850000000       38.9700000000       10.2130000000
H                23.1610000000       40.4790000000        9.6490000000
H                24.0360000000       41.6700000000       11.6700000000
H                24.6490000000       40.1390000000       12.3130000000
N                21.5160000000       41.4380000000       12.7990000000
C                21.0690000000       42.7690000000       13.1390000000
C                20.8560000000       42.8910000000       14.6280000000
O                21.0210000000       41.9330000000       15.3590000000
H                21.9790000000       40.9110000000       13.5330000000
H                21.8340000000       43.4970000000       12.8340000000
H                20.1580000000       43.0170000000       12.5880000000
N                20.5690000000       44.1210000000       15.0830000000
C                20.4450000000       44.3320000000       16.5360000000
C                19.3630000000       43.4530000000       17.1190000000
O                18.2400000000       43.3940000000       16.6150000000
C                20.1040000000       45.8300000000       16.7800000000
C                20.0980000000       46.1540000000       18.2580000000
C                19.8030000000       47.6490000000       18.4610000000
N                20.9500000000       48.3720000000       18.0120000000
C                20.9610000000       49.6410000000       17.6050000000
N                19.8920000000       50.4080000000       17.7910000000
N                22.0720000000       50.1510000000       17.0980000000
H                20.2130000000       44.8300000000       14.4440000000
H                21.4050000000       44.0620000000       16.9860000000
H                20.8170000000       46.4500000000       16.2380000000
H                19.1130000000       46.0100000000       16.3600000000
H                19.3160000000       45.5780000000       18.7550000000
H                21.0500000000       45.8990000000       18.7220000000
H                18.9250000000       47.9270000000       17.8720000000
H                19.5900000000       47.8540000000       19.5160000000
H                21.8440000000       47.9360000000       18.1990000000
H                19.0040000000       50.0270000000       18.0700000000
H                19.8290000000       51.2920000000       17.3070000000
H                22.9390000000       49.6440000000       17.0280000000
H                22.0660000000       51.1320000000       16.8320000000
N                19.7300000000       42.7450000000       18.1980000000
C                18.7420000000       41.9310000000       18.9140000000
C                18.0460000000       40.9160000000       18.0170000000
O                16.9310000000       40.4640000000       18.3330000000
C                17.6060000000       42.7050000000       19.6180000000
C                16.8780000000       41.9240000000       20.7160000000
O                17.6010000000       41.3980000000       21.6340000000
O                15.6330000000       41.8410000000       20.7140000000
H                20.6520000000       42.8590000000       18.6230000000
H                19.2980000000       41.3600000000       19.6660000000
H                18.0390000000       43.5790000000       20.1150000000
H                16.8680000000       43.0380000000       18.8900000000
N                18.7620000000       40.4380000000       17.0160000000
C                18.0630000000       39.5570000000       16.0420000000
C                17.7260000000       38.2200000000       16.7000000000
O                16.7780000000       37.5120000000       16.2650000000
C                18.9090000000       39.4090000000       14.7530000000
C                20.2150000000       38.6800000000       15.0610000000
C                18.0070000000       38.7080000000       13.7000000000
H                19.5940000000       40.9120000000       16.6940000000
H                17.1070000000       40.0300000000       15.7810000000
H                19.1340000000       40.4180000000       14.3980000000
H                20.7820000000       38.5420000000       14.1440000000
H                20.8160000000       39.2610000000       15.7520000000
H                20.0220000000       37.7000000000       15.4880000000
H                18.5940000000       38.4740000000       12.8150000000
H                17.5920000000       37.7930000000       14.1050000000
H                17.1990000000       39.3730000000       13.4140000000
N                21.4050000000       50.4910000000        5.3240000000
C                21.8570000000       50.3540000000        6.7040000000
C                21.6330000000       51.6270000000        7.5130000000
O                21.2210000000       51.5770000000        8.7040000000
C                23.3660000000       50.0030000000        6.6880000000
C                23.8470000000       49.7170000000        8.1090000000
C                23.6020000000       48.4950000000        8.7300000000
C                24.5120000000       50.7200000000        8.8090000000
C                24.0690000000       48.2680000000       10.0140000000
C                24.9950000000       50.4680000000       10.0820000000
C                24.7750000000       49.2450000000       10.6780000000
H                22.0610000000       50.3110000000        4.5700000000
H                21.2770000000       49.5670000000        7.2060000000
H                23.4890000000       49.1390000000        6.0350000000
H                23.8950000000       50.8530000000        6.2600000000
H                23.0360000000       47.7360000000        8.2130000000
H                24.6330000000       51.6900000000        8.3520000000
H                23.8550000000       47.3210000000       10.4840000000
H                25.5010000000       51.2520000000       10.6240000000
H                25.1250000000       49.0800000000       11.6850000000
N                19.4680000000       51.8940000000       10.9810000000
C                20.0860000000       52.1830000000       12.3250000000
C                20.5660000000       53.6600000000       12.5320000000
O                21.1560000000       54.1480000000       11.5460000000
C                21.3680000000       51.3380000000       12.4050000000
C                21.0110000000       49.8990000000       12.5410000000
C                20.4370000000       49.4470000000       13.7220000000
C                21.1380000000       49.0250000000       11.4570000000
C                20.0590000000       48.1010000000       13.8270000000
C                20.7500000000       47.6940000000       11.5550000000
C                20.2080000000       47.2380000000       12.7450000000
O                19.7830000000       45.9500000000       12.9110000000
O                20.4170000000       54.2560000000       13.6270000000
H                20.0230000000       52.0910000000       10.1620000000
H                19.3560000000       51.9250000000       13.0920000000
H                21.9520000000       51.5270000000       11.5020000000
H                21.9360000000       51.6870000000       13.2720000000
H                20.2720000000       50.1350000000       14.5370000000
H                21.5320000000       49.4110000000       10.5290000000
H                19.5680000000       47.7460000000       14.7170000000
H                20.8370000000       47.0360000000       10.7030000000
H                19.7270000000       45.4930000000       12.0270000000
O                24.6190000000       44.2650000000       10.4570000000
H                25.1880000000       43.4660000000       10.3600000000
H                24.4600000000       44.3090000000       11.4100000000
O                19.6290000000       44.6530000000       10.7020000000
H                20.5360000000       44.5420000000       10.3430000000
H                19.0570000000       44.9200000000        9.9710000000
O                24.0600000000       43.5670000000       17.3280000000
H                24.8890000000       43.2740000000       17.7220000000
H                23.3740000000       43.3540000000       17.9880000000
O                15.5130000000       43.9370000000       16.9570000000
H                16.4470000000       43.7710000000       16.7620000000
H                15.2370000000       44.6470000000       16.3750000000
O                22.2260000000       42.8770000000       19.4240000000
H                22.3110000000       41.9410000000       19.6960000000
H                22.2570000000       43.3750000000       20.2470000000
O                28.2330000000       38.0800000000       15.1410000000
H                29.1530000000       38.3570000000       15.0060000000
H                27.6730000000       38.7330000000       14.7110000000
O                22.1530000000       44.0550000000        9.9060000000
H                23.1230000000       44.1480000000       10.0780000000
H                21.9060000000       43.1370000000       10.0650000000
O                29.1880000000       40.6910000000       16.3550000000
H                29.9790000000       40.4500000000       15.8640000000
H                28.6180000000       39.9170000000       16.2800000000
O                22.0000000000       45.6650000000        7.5570000000
H                21.9920000000       45.1390000000        8.3750000000
H                21.1210000000       45.5890000000        7.1680000000
O                21.5263692208       52.9282217474       16.6800000000
H                21.3915236295       53.8237811628       17.0000000000
H                20.7160847962       52.7236755395       16.1730000000
O                18.8590265769       54.9781947278       18.4440000000
H                18.4837144916       54.8342543282       19.3170000000
H                18.5552344201       54.2323781783       17.8880000000
O                15.6004483433       50.0542177888       19.3280000000
H                14.7781901981       49.8924106732       19.8310000000
H                15.5527772742       49.4227865026       18.6020000000
O                25.7550176486       42.6459878231       21.6090000000
H                25.5205556188       41.7900879712       21.2100000000
H                26.0924200780       43.1975896729       20.9040000000
N                13.5539233097       48.4789031261       13.4590000000
C                14.4430988430       47.8468059256       14.4800000000
C                14.8737467156       48.8229019300       15.5500000000
O                14.8167474062       48.5036276298       16.7400000000
C                15.6752352099       47.1586831362       13.8710000000
C                15.1803175013       45.9919057531       12.9810000000
C                16.6133241727       46.7118653905       15.0050000000
C                16.3193032331       45.4151245965       12.1140000000
H                13.9679353209       49.1798132876       12.8520000000
H                13.8194894461       47.0849290851       14.9600000000
H                16.2017779648       47.8806843324       13.2370000000
H                14.7682003722       45.1997135593       13.6090000000
H                14.3957067232       46.3448914849       12.3110000000
H                17.3418471842       46.0020265202       14.6280000000
H                17.1571130616       47.5719954065       15.3950000000
H                16.0466781869       46.2773250280       15.8210000000
H                15.9313726376       44.6230400978       11.4770000000
H                16.7311261335       46.1898264092       11.4720000000
H                17.1202896556       45.0057754166       12.7200000000
N                15.3457362210       50.0133921260       15.1610000000
C                15.9617782853       50.9983759710       16.0170000000
C                14.9648463085       52.0971128065       16.3920000000
O                14.2602995950       52.6314235106       15.5320000000
C                17.0760850308       51.6463400726       15.1880000000
C                18.1200879287       52.4280740102       15.9520000000
O                17.7188225569       53.0150860215       16.9780000000
O                19.2636518083       52.3273632691       15.4930000000
H                15.2560374912       50.2687548834       14.1770000000
H                16.3679430035       50.5088780429       16.9050000000
H                17.5870824534       50.8732665741       14.6080000000
H                16.6241856844       52.3230527005       14.4530000000
H                21.7901580571       35.3661096546       14.4825404448
H                16.1708131843       43.6565649357        9.5868245872
H                20.3282298358       39.3618352245        5.8910125260
H                21.5758815324       37.9621902993       10.4461713918
H                18.2592908708       37.8995257528       17.4828774515
H                20.7258362707       49.9202888260        5.1722588237
H                21.8131735928       52.5198822602        7.1003273139
H                19.2645542248       51.0190370890       10.9257757214
H                13.2314165730       47.8448525017       12.9076659720
H                14.8785507914       52.3902091082       17.3441804670
