474
Properties=species:S:1:pos:R:3 pbc="F F F"
N      26.88500000      10.64500000      18.08100000 
C      25.69200000      10.20500000      18.77200000 
C      25.94900000       8.89400000      19.47000000 
O      25.43700000       8.65700000      20.57800000 
C      24.53000000      10.11700000      17.80200000 
C      23.22100000       9.64000000      18.42600000 
C      22.80800000      10.46800000      19.63300000 
C      22.14500000       9.70400000      17.34800000 
H      26.86300000      10.75600000      17.08600000 
H      25.46400000      10.90800000      19.55300000 
H      24.38300000      11.10500000      17.38700000 
H      24.80200000       9.46300000      16.98600000 
H      23.33600000       8.61100000      18.73900000 
H      21.82900000      10.15900000      19.97600000 
H      23.50500000      10.35500000      20.45100000 
H      22.75600000      11.51500000      19.36300000 
H      21.18500000       9.40300000      17.74400000 
H      22.05400000      10.71800000      16.97800000 
H      22.39100000       9.06100000      16.51700000 
N      26.74500000       8.01200000      18.87400000 
C      27.05900000       6.76500000      19.52900000 
C      27.75100000       7.01600000      20.84600000 
O      27.54300000       6.29500000      21.84000000 
C      27.94800000       5.92800000      18.62200000 
C      27.97100000       4.48500000      19.04800000 
C      29.01100000       3.64200000      18.36000000 
O      29.78600000       4.16000000      17.50900000 
O      29.02200000       2.41100000      18.69500000 
H      27.11500000       8.18900000      17.96400000 
H      26.15200000       6.23200000      19.76000000 
H      27.57600000       6.01300000      17.61500000 
H      28.94500000       6.34000000      18.62000000 
H      28.13500000       4.39300000      20.11200000 
H      27.01700000       4.02200000      18.84800000 
N      28.62500000       8.01300000      20.87500000 
C      29.30500000       8.36400000      22.09100000 
C      28.34900000       8.87700000      23.13200000 
O      28.40500000       8.48200000      24.31400000 
H      28.77700000       8.56600000      20.06100000 
H      29.80800000       7.51200000      22.51100000 
H      30.02800000       9.13100000      21.86800000 
N      27.44600000       9.76700000      22.74700000 
C      26.49200000      10.29800000      23.69600000 
C      25.67100000       9.19100000      24.29100000 
O      25.47900000       9.11300000      25.52100000 
C      25.64000000      11.35000000      22.98900000 
C      24.27200000      11.53200000      23.62000000 
C      26.41900000      12.65600000      22.98800000 
H      27.42400000      10.07800000      21.79700000 
H      27.01300000      10.74600000      24.52500000 
H      25.49700000      11.01200000      21.97400000 
H      23.74200000      12.32500000      23.11100000 
H      23.67900000      10.63000000      23.54800000 
H      24.36300000      11.80000000      24.66300000 
H      25.88400000      13.41300000      22.43200000 
H      26.55300000      13.00800000      24.00400000 
H      27.39300000      12.52700000      22.53500000 
N      25.15500000       8.30800000      23.44900000 
C      24.37200000       7.20100000      23.93500000 
C      25.15300000       6.42200000      24.97000000 
O      24.62200000       6.03800000      26.02800000 
C      23.95100000       6.33800000      22.74500000 
C      23.53300000       4.95100000      23.18000000 
C      22.79600000       7.02300000      22.02900000 
H      25.31900000       8.39600000      22.46400000 
H      23.49500000       7.55800000      24.45200000 
H      24.80200000       6.26100000      22.08400000 
H      23.21800000       4.38600000      22.32100000 
H      24.33500000       4.41000000      23.66000000 
H      22.70400000       5.01200000      23.87300000 
H      22.52000000       6.46300000      21.14500000 
H      21.93700000       7.06100000      22.69000000 
H      23.05300000       8.02900000      21.73200000 
N      26.42300000       6.13400000      24.72000000 
C      27.15600000       5.35000000      25.66500000 
C      27.22100000       6.01700000      27.00900000 
O      27.08400000       5.33300000      28.03600000 
C      28.55100000       5.06600000      25.15600000 
O      28.43000000       3.83100000      24.43700000 
H      26.84700000       6.39800000      23.85400000 
H      26.65900000       4.41400000      25.83800000 
H      28.89200000       5.85800000      24.51400000 
H      29.23900000       4.94200000      25.97500000 
H      29.17600000       3.64300000      23.87800000 
N      27.48400000       7.31800000      27.05800000 
C      27.55100000       7.96500000      28.34900000 
C      26.21700000       7.85600000      29.03200000 
O      26.13500000       7.65500000      30.25400000 
C      27.90700000       9.42800000      28.20300000 
C      29.25200000       9.61000000      27.52600000 
C      29.45300000      11.05700000      27.19100000 
O      29.34700000      11.94000000      28.06600000 
N      29.72300000      11.34100000      25.91800000 
H      27.52500000       7.84900000      26.21500000 
H      28.26600000       7.45500000      28.97200000 
H      27.13700000       9.90600000      27.61100000 
H      27.91600000       9.89100000      29.17600000 
H      30.04400000       9.28900000      28.18700000 
H      29.30200000       9.02200000      26.62600000 
H      29.74200000      10.61600000      25.24000000 
H      29.75800000      12.29200000      25.60400000 
N      25.12900000       8.03300000      28.30500000 
C      23.84800000       7.93800000      28.94900000 
C      23.67100000       6.55900000      29.51900000 
O      23.14500000       6.42500000      30.63700000 
C      22.74900000       8.36600000      27.98200000 
C      22.81400000       9.88400000      27.83300000 
C      21.38100000       7.91000000      28.44300000 
C      21.77800000      10.42400000      26.85600000 
H      25.18600000       8.20500000      27.32400000 
H      23.82900000       8.58900000      29.80500000 
H      22.96100000       7.91000000      27.02300000 
H      22.67200000      10.33300000      28.80900000 
H      23.80300000      10.15700000      27.48800000 
H      20.62600000       8.20200000      27.73100000 
H      21.33500000       6.83300000      28.54100000 
H      21.13300000       8.34700000      29.40200000 
H      21.96800000      11.46400000      26.63300000 
H      21.80800000       9.86900000      25.92500000 
H      20.77700000      10.34800000      27.25800000 
N      24.07500000       5.51200000      28.82200000 
C      23.90700000       4.17800000      29.35600000 
C      24.74800000       4.01800000      30.62400000 
O      24.31400000       3.46500000      31.65500000 
C      24.27500000       3.16900000      28.28600000 
C      23.20700000       3.03800000      27.21400000 
O      22.07700000       3.54200000      27.44900000 
O      23.51900000       2.39300000      26.15700000 
H      24.45500000       5.63600000      27.90600000 
H      22.88500000       4.03500000      29.65200000 
H      25.21600000       3.43300000      27.82800000 
H      24.40000000       2.19200000      28.73700000 
N      25.97900000       4.50300000      30.58400000 
C      26.85100000       4.41700000      31.71400000 
C      26.27100000       5.15800000      32.90400000 
O      26.40200000       4.71900000      34.06200000 
C      28.21000000       4.95800000      31.31400000 
H      26.31300000       4.94100000      29.74800000 
H      26.93300000       3.39300000      32.03600000 
H      28.89600000       4.89300000      32.14500000 
H      28.59000000       4.37000000      30.49200000 
H      28.11900000       5.98600000      31.00100000 
N      25.62300000       6.29200000      32.67800000 
C      25.03600000       7.00500000      33.78300000 
C      23.80500000       6.29400000      34.26600000 
O      23.54900000       6.17400000      35.48300000 
C      24.74700000       8.45200000      33.36600000 
C      23.70600000       9.10000000      34.26400000 
C      26.05900000       9.21900000      33.41800000 
H      25.59500000       6.68900000      31.76100000 
H      25.71700000       7.00700000      34.61400000 
H      24.37600000       8.43200000      32.35200000 
H      23.61500000      10.14700000      34.00700000 
H      22.73500000       8.63800000      34.14800000 
H      24.00100000       9.02600000      35.30100000 
H      25.92200000      10.23300000      33.07400000 
H      26.41900000       9.25100000      34.43900000 
H      26.80800000       8.74300000      32.80200000 
N      22.98700000       5.81600000      33.34400000 
C      21.76000000       5.19900000      33.76300000 
C      22.02200000       3.95000000      34.54300000 
O      21.20600000       3.55000000      35.39500000 
H      23.18200000       5.93000000      32.37000000 
H      21.18900000       5.85800000      34.39600000 
H      21.17500000       4.95600000      32.89100000 
N      23.13700000       3.27800000      34.27400000 
C      23.38900000       2.06700000      35.00000000 
C      23.94600000       2.37800000      36.36500000 
O      23.68100000       1.63400000      37.33200000 
C      24.24300000       1.08900000      34.22100000 
O      25.61000000       1.49600000      34.31500000 
H      23.70400000       3.52500000      33.48700000 
H      22.44700000       1.58300000      35.18000000 
H      24.12000000       0.10900000      34.65400000 
H      23.91200000       1.08000000      33.19600000 
H      26.20700000       0.86400000      33.92900000 
N      24.66600000       3.48200000      36.52200000 
C      25.05100000       3.88000000      37.86300000 
C      23.84100000       4.24200000      38.67600000 
O      23.76300000       3.90100000      39.86800000 
C      26.02300000       5.03700000      37.84300000 
C      27.37000000       4.57700000      37.34400000 
C      28.41700000       5.66400000      37.49100000 
C      29.82500000       5.08600000      37.46400000 
N      30.62800000       5.62600000      38.60800000 
H      24.91000000       4.05200000      35.74500000 
H      25.49700000       3.04000000      38.36500000 
H      25.62400000       5.83900000      37.23500000 
H      26.12500000       5.40300000      38.85500000 
H      27.67000000       3.71800000      37.93100000 
H      27.29800000       4.26100000      36.31400000 
H      28.29900000       6.40800000      36.71800000 
H      28.26000000       6.16500000      38.43900000 
H      29.80900000       4.01700000      37.58800000 
H      30.35900000       5.32900000      36.56500000 
H      31.55500000       5.23600000      38.61800000 
H      30.71300000       6.62500000      38.54000000 
H      30.18600000       5.41000000      39.48500000 
N      22.86800000       4.93000000      38.09300000 
C      21.66300000       5.19300000      38.83800000 
C      21.04500000       3.88800000      39.25300000 
O      20.55500000       3.74800000      40.38800000 
C      20.68700000       6.00900000      38.00800000 
C      21.18600000       7.41300000      37.71100000 
C      20.10400000       8.17200000      36.96400000 
C      21.57400000       8.14700000      38.98300000 
H      22.96900000       5.25500000      37.15300000 
H      21.89800000       5.70400000      39.75200000 
H      20.48400000       5.48400000      37.08400000 
H      19.76100000       6.07900000      38.56400000 
H      22.05500000       7.34200000      37.07400000 
H      20.45000000       9.15900000      36.69100000 
H      19.82300000       7.64700000      36.05900000 
H      19.22300000       8.27800000      37.58600000 
H      21.80500000       9.18000000      38.76200000 
H      20.75900000       8.12500000      39.69700000 
H      22.44400000       7.70800000      39.45100000 
N      21.03300000       2.90600000      38.36600000 
C      20.45600000       1.62700000      38.68200000 
C      21.14900000       0.97900000      39.85700000 
O      20.45600000       0.39300000      40.71400000 
C      20.44800000       0.74400000      37.42600000 
C      19.03600000       0.53700000      36.90400000 
C      18.32200000      -0.52200000      37.72500000 
C      16.84300000      -0.62600000      37.43300000 
N      16.23900000      -1.58200000      38.40400000 
H      21.35600000       3.07300000      37.43800000 
H      19.44600000       1.77200000      39.02700000 
H      21.05600000       1.21800000      36.67900000 
H      20.89500000      -0.21600000      37.63500000 
H      18.49300000       1.47500000      36.95100000 
H      19.06500000       0.23700000      35.86500000 
H      18.78700000      -1.47700000      37.54100000 
H      18.44100000      -0.30400000      38.77600000 
H      16.35100000       0.31800000      37.58200000 
H      16.64700000      -0.98100000      36.43600000 
H      15.25600000      -1.70700000      38.23200000 
H      16.68100000      -2.48100000      38.34900000 
H      16.36500000      -1.18900000      39.35900000 
N      22.47300000       1.04700000      39.97600000 
C      23.08200000       0.49700000      41.16700000 
C      22.86000000       1.34200000      42.39500000 
O      22.72700000       0.75800000      43.48600000 
C      24.55200000       0.17800000      40.99800000 
C      24.73100000      -1.11000000      40.20900000 
S      25.77400000      -2.37300000      41.08400000 
C      24.56600000      -2.89300000      42.38700000 
H      23.02100000       1.47700000      39.25900000 
H      22.57000000      -0.41600000      41.40000000 
H      25.06100000       1.00400000      40.52200000 
H      24.97300000       0.06100000      41.98500000 
H      23.78500000      -1.58500000      40.02600000 
H      25.20600000      -0.94200000      39.25800000 
H      25.00700000      -3.72400000      42.90700000 
H      24.38100000      -2.08000000      43.06400000 
H      23.65800000      -3.20400000      41.90700000 
O      28.24100000       1.87900000      28.75100000 
H      29.12600000       2.18500000      28.90700000 
H      28.02700000       1.89000000      27.80800000 
O      20.43700000       9.42200000      31.94100000 
H      21.37000000       9.54700000      31.80200000 
H      19.94100000      10.19600000      31.69500000 
O      18.93200000       7.21900000      31.61300000 
H      19.52900000       7.96500000      31.73800000 
H      18.02500000       7.50500000      31.61600000 
O      27.63100000       1.83100000      26.18100000 
H      27.96300000       2.48400000      25.55100000 
H      26.69300000       1.71000000      26.08000000 
O      19.46700000       6.14000000      24.63500000 
H      20.40000000       6.10800000      24.83100000 
H      19.32400000       6.39400000      23.72900000 
O      28.24100000      -1.87900000      33.55500000 
H      29.12600000      -2.18500000      33.39900000 
H      28.02700000      -1.89000000      34.49800000 
O      26.14900000      12.98800000      31.94100000 
H      25.57400000      13.73300000      31.80200000 
H      25.72600000      12.17100000      31.69500000 
O      28.80900000      12.78600000      31.61300000 
H      27.86500000      12.93000000      31.73800000 
H      29.01500000      11.85800000      31.61600000 
O      27.63100000      -1.83100000      36.12500000 
H      27.96300000      -2.48400000      36.75500000 
H      26.69300000      -1.71000000      36.22600000 
N      17.00700000       7.64500000      16.88700000 
C      17.78000000       7.53900000      18.09800000 
C      17.83300000       8.86000000      18.80200000 
O      17.73700000       8.91300000      20.04400000 
C      19.19100000       7.02300000      17.81300000 
C      20.03200000       7.07100000      19.07500000 
C      19.13900000       5.59800000      17.28700000 
H      17.45500000       7.53500000      15.99500000 
H      17.29000000       6.86200000      18.77600000 
H      19.63000000       7.66600000      17.06100000 
H      20.99900000       6.63100000      18.88000000 
H      20.18500000       8.07800000      19.43000000 
H      19.55200000       6.50400000      19.86100000 
H      20.13800000       5.24300000      17.08000000 
H      18.69500000       4.95000000      18.03000000 
H      18.56000000       5.53000000      16.38000000 
N      16.99900000       9.90900000      22.74700000 
C      17.93500000      10.47000000      23.69600000 
C      17.38700000      11.73400000      24.29100000 
O      17.41600000      11.94000000      25.52100000 
C      19.27300000      10.68200000      22.98900000 
C      20.11400000      11.77600000      23.62000000 
C      20.01400000       9.35400000      22.98800000 
H      17.28000000       9.77200000      21.79700000 
H      18.06300000       9.79400000      24.52500000 
H      19.05200000      10.97400000      21.97400000 
H      21.06600000      11.83800000      23.11100000 
H      19.63000000      12.74000000      23.54800000 
H      20.30100000      11.56300000      24.66300000 
H      20.93800000       9.43900000      22.43200000 
H      20.25200000       9.06200000      24.00400000 
H      19.41500000       8.57500000      22.53500000 
N      14.85900000      11.10100000      27.05800000 
C      15.38500000      10.71900000      28.34900000 
C      15.95800000      11.92900000      29.03200000 
O      15.82600000      12.10100000      30.25400000 
C      16.47500000       9.68000000      28.20300000 
C      15.96000000       8.42300000      27.52600000 
C      17.11300000       7.52600000      27.19100000 
O      17.93000000       7.17700000      28.06600000 
N      17.22400000       7.15000000      25.91800000 
H      15.29900000      10.80000000      26.21500000 
H      14.58700000      10.35500000      28.97200000 
H      17.27300000      10.10700000      27.61100000 
H      16.87200000       9.44000000      29.17600000 
H      15.28600000       7.89800000      28.18700000 
H      15.42600000       8.67400000      26.62600000 
H      16.58600000       7.49600000      25.24000000 
H      18.03000000       6.64400000      25.60400000 
N      16.65600000      12.78300000      28.30500000 
C      17.21400000      13.93900000      28.94900000 
C      16.10900000      14.78200000      29.51900000 
O      16.25500000      15.30500000      30.63700000 
C      18.13400000      14.67800000      27.98200000 
C      19.41600000      13.86200000      27.83300000 
C      18.42300000      16.09000000      28.44300000 
C      20.40200000      14.48900000      26.85600000 
H      16.77600000      12.64700000      27.32400000 
H      17.78800000      13.63100000      29.80500000 
H      17.63300000      14.72100000      27.02300000 
H      19.87600000      13.76000000      28.80900000 
H      19.15800000      12.86900000      27.48800000 
H      19.05400000      16.59800000      27.73100000 
H      17.51400000      16.66800000      28.54100000 
H      18.92500000      16.08700000      29.40200000 
H      21.20800000      13.80400000      26.63300000 
H      19.90600000      14.74000000      25.92500000 
H      20.83700000      15.39500000      27.25800000 
N      25.00600000      17.74600000      28.30500000 
C      25.72800000      16.68400000      28.94900000 
C      27.01100000      17.22000000      29.51900000 
O      27.39100000      16.83100000      30.63700000 
C      25.90800000      15.51800000      27.98200000 
C      24.56000000      14.81600000      27.83300000 
C      26.98700000      14.56100000      28.44300000 
C      24.61000000      13.64900000      26.85600000 
H      24.82800000      17.71000000      27.32400000 
H      25.17400000      16.34200000      29.80500000 
H      26.19600000      15.93000000      27.02300000 
H      24.24300000      14.46800000      28.80900000 
H      23.82900000      15.53500000      27.48800000 
H      27.11000000      13.76100000      27.73100000 
H      27.94100000      15.06000000      28.54100000 
H      26.73200000      14.12800000      29.40200000 
H      23.61400000      13.29300000      26.63300000 
H      25.07600000      13.95200000      25.92500000 
H      25.17700000      12.81900000      27.25800000 
N      24.07500000      -5.51200000      33.48400000 
C      23.90700000      -4.17800000      32.95000000 
C      24.74800000      -4.01800000      31.68200000 
O      24.31400000      -3.46500000      30.65100000 
C      24.27500000      -3.16900000      34.02000000 
C      23.20700000      -3.03800000      35.09200000 
O      22.07700000      -3.54200000      34.85700000 
O      23.51900000      -2.39300000      36.14900000 
H      24.45500000      -5.63600000      34.40000000 
H      22.88500000      -4.03500000      32.65400000 
H      25.21600000      -3.43300000      34.47800000 
H      24.40000000      -2.19200000      33.56900000 
N      23.13700000      -3.27800000      28.03200000 
C      23.38900000      -2.06700000      27.30600000 
C      23.94600000      -2.37800000      25.94100000 
O      23.68100000      -1.63400000      24.97400000 
C      24.24300000      -1.08900000      28.08500000 
O      25.61000000      -1.49600000      27.99100000 
H      23.70400000      -3.52500000      28.81900000 
H      22.44700000      -1.58300000      27.12600000 
H      24.12000000      -0.10900000      27.65200000 
H      23.91200000      -1.08000000      29.11000000 
H      26.20700000      -0.86400000      28.37700000 
N      21.03300000      -2.90600000      23.94000000 
C      20.45600000      -1.62700000      23.62400000 
C      21.14900000      -0.97900000      22.44900000 
O      20.45600000      -0.39300000      21.59200000 
C      20.44800000      -0.74400000      24.88000000 
C      19.03600000      -0.53700000      25.40200000 
C      18.32200000       0.52200000      24.58100000 
C      16.84300000       0.62600000      24.87300000 
N      16.23900000       1.58200000      23.90200000 
H      21.35600000      -3.07300000      24.86800000 
H      19.44600000      -1.77200000      23.27900000 
H      21.05600000      -1.21800000      25.62700000 
H      20.89500000       0.21600000      24.67100000 
H      18.49300000      -1.47500000      25.35500000 
H      19.06500000      -0.23700000      26.44100000 
H      18.78700000       1.47700000      24.76500000 
H      18.44100000       0.30400000      23.53000000 
H      16.35100000      -0.31800000      24.72400000 
H      16.64700000       0.98100000      25.87000000 
H      15.25600000       1.70700000      24.07400000 
H      16.68100000       2.48100000      23.95700000 
H      16.36500000       1.18900000      22.94700000 
N      22.47300000      -1.04700000      22.33000000 
C      23.08200000      -0.49700000      21.13900000 
C      22.86000000      -1.34200000      19.91100000 
O      22.72700000      -0.75800000      18.82000000 
C      24.55200000      -0.17800000      21.30800000 
C      24.73100000       1.11000000      22.09700000 
S      25.77400000       2.37300000      21.22200000 
C      24.56600000       2.89300000      19.91900000 
H      23.02100000      -1.47700000      23.04700000 
H      22.57000000       0.41600000      20.90600000 
H      25.06100000      -1.00400000      21.78400000 
H      24.97300000      -0.06100000      20.32100000 
H      23.78500000       1.58500000      22.28000000 
H      25.20600000       0.94200000      23.04800000 
H      25.00700000       3.72400000      19.39900000 
H      24.38100000       2.08000000      19.24200000 
H      23.65800000       3.20400000      20.39900000 
N      19.76200000       0.12300000      18.73300000 
C      19.95600000       1.40100000      18.10600000 
C      20.63400000       1.30900000      16.76800000 
O      20.54300000       2.28300000      15.99500000 
C      20.74400000       2.31300000      19.02500000 
C      19.83500000       2.91100000      20.08200000 
C      20.62400000       3.79200000      21.02900000 
N      21.07300000       3.08700000      22.22200000 
C      20.45100000       3.20000000      23.38300000 
N      19.20800000       3.66000000      23.40200000 
N      21.05300000       2.87500000      24.51500000 
H      20.23200000      -0.07900000      19.59100000 
H      18.99500000       1.84600000      17.89700000 
H      21.55600000       1.75900000      19.47200000 
H      21.16700000       3.11500000      18.44200000 
H      19.07700000       3.50000000      19.58400000 
H      19.33000000       2.13300000      20.63900000 
H      21.50000000       4.17700000      20.53300000 
H      20.04900000       4.64500000      21.34400000 
H      21.93000000       2.59200000      22.18800000 
H      18.68600000       3.76700000      22.56700000 
H      18.85500000       4.09600000      24.22400000 
H      22.03100000       2.67900000      24.59800000 
H      20.57300000       2.94100000      25.38200000 
H      27.12990909      11.45409671      18.38983986 
H      22.82364383       2.33825311      42.31652730 
H      23.27550490      -5.92361398      33.52116885 
H      25.68606424      -4.36357816      31.65727711 
H      22.30229991      -3.25867859      28.36800960 
H      24.52805041      -3.18043732      25.80942621 
H      20.42640237      -3.55412177      23.79175194 
H      22.82364383      -2.33825311      19.98947270 
H      18.88997726       0.01247414      18.92628831 
H      21.14000380       0.48300577      16.51961785 
H      16.36274209       7.01656510      16.88585032 
H      17.94567283       9.70284730      18.27577452 
H      16.74668777       9.09007729      23.02214383 
H      16.98751373      12.43340626      23.69834360 
H      14.01643889      10.79581326      26.97462234 
H      15.26532646      14.91821576      28.99971180 
H      24.18630197      17.81639512      28.66988309 
H      27.55024674      17.88311340      28.99987230 
