 256 
 
N                24.4987980153       33.1875774662       30.7682954608
C                24.7809208193       32.6103932597       32.1053732328
C                25.0300136519       33.7676671330       33.0932007099
O                25.1876606314       34.9044217733       32.6875233454
C                25.9714113799       31.6508771796       31.9610902838
O                25.5025556644       30.6090830743       31.1333995536
H                24.5994832153       32.4461302142       30.0558161460
H                23.5543700118       33.5909698067       30.7230170256
H                25.1912530411       33.9355645237       30.5525268490
H                23.9256808718       32.0111429880       32.4343479457
H                26.8172249435       32.1760442147       31.4957127775
H                26.2532213696       31.2723796235       32.9510746587
H                26.1764311419       29.9310996973       31.0168029801
N                25.0185372750       33.4074072583       34.3749552758
C                25.3809531281       34.3074253055       35.4502372179
C                26.1073053255       33.4472033446       36.4799095667
O                25.8215924254       32.2680971978       36.6369783042
C                24.1416967326       35.0209497234       36.0481692573
C                23.0336966687       34.0289663757       36.3979307403
C                24.5499574022       35.8386856783       37.2701236259
H                24.8608790728       32.4544770684       34.6900597995
H                26.0557443979       35.0785438618       35.0627001090
H                23.7951731557       35.7077526308       35.2705415723
H                22.2562723373       34.5298954391       36.9679870184
H                22.5858170351       33.6021574801       35.5057331176
H                23.4341805789       33.2246002398       37.0097510652
H                23.7257292180       36.4546991197       37.6190367977
H                24.8549897881       35.1951927597       38.0919642363
H                25.3850442970       36.4971700333       37.0400706897
N                27.0968442810       34.0659299184       37.1234475471
C                27.8429569042       33.4258086052       38.1741928877
C                27.7386124905       34.2679485461       39.4520470424
O                26.8630575662       35.1050791050       39.5995047581
C                29.2628574105       33.0805984763       37.7208738558
S                30.4671031312       34.4870373087       37.8244778954
H                27.2913008703       35.0401046520       36.9068348705
H                27.3129249045       32.4822154787       38.3806256001
H                29.6780452113       32.2928124616       38.3447187615
H                29.2181634525       32.7256014778       36.6932855817
N                28.6068434296       33.9233210003       40.4175851718
C                28.5555023129       34.4609866634       41.7554863095
C                29.4482110828       35.6814774566       41.9653193654
O                29.4789977338       36.2641365570       43.0392377236
C                28.9797484445       33.3746346200       42.7428383081
H                29.4320570387       33.3920035127       40.1854131273
H                27.5252927982       34.7911485077       41.9369095937
H                28.9403910832       33.7653385557       43.7549264790
H                28.3251507887       32.5125442944       42.6656838792
H                30.0049575466       33.0871163744       42.5239025536
N                30.2585772451       36.0171767677       40.9436008948
C                31.0412604964       37.2292691805       41.0830348125
C                30.0888408628       38.4310707803       41.0644977520
O                29.1793053777       38.5106059313       40.2526000829
C                32.0721727186       37.3730484570       39.9732765607
H                30.0945295171       35.6481966310       40.0108188155
H                31.5301117880       37.1727033035       42.0612116715
H                32.6155879172       38.3084124921       40.0814848143
H                32.7886126331       36.5573771399       40.0037975070
H                31.5802064725       37.3801680824       39.0018856422
N                30.3441569087       39.3969356693       41.9610727581
C                29.4040371914       40.4962177692       42.1351008640
C                29.0263744993       41.0849822991       40.7749422199
O                27.8655236037       41.2040312846       40.4253719517
C                29.9921808290       41.5638047056       43.0461851384
H                31.0188262839       39.2452733330       42.6982227931
H                28.4620856403       40.1084844727       42.5475668442
H                29.2723074378       42.3668722976       43.1761435590
H                30.2170313994       41.1358012905       44.0193052486
H                30.8991841072       41.9778524981       42.6150106738
N                30.0658542342       41.5333055953       40.0392434570
C                29.8506022722       42.0750669414       38.7136039197
C                30.0672796268       40.9706530436       37.6791256401
O                30.9035355158       41.0338456731       36.7855219555
C                30.6920569098       43.3110235591       38.4049601529
C                29.8559687591       44.5854357959       38.4852422284
O                28.7811194647       44.6369795233       39.0573985027
N                30.4077610664       45.6496396464       37.8840075644
H                31.0082275050       41.2716088254       40.2874258343
H                28.7871219712       42.3562654509       38.6879175197
H                31.5243671736       43.3950218670       39.1041145746
H                31.1005174112       43.2052085935       37.3971593871
H                29.8877991407       46.5151634102       37.8665163758
H                31.2660817747       45.5859611605       37.3689564215
N                29.2848099491       39.9016828919       37.8457457869
C                29.2689792218       38.8993838840       36.8059238853
C                29.0474867900       39.6551308331       35.4905430153
O                28.1922744493       40.5292721196       35.4311634083
C                28.1362695565       37.9207833486       37.0404001099
S                28.0180144546       36.7598770626       35.6642639710
H                28.5763868273       39.8725637787       38.5653529878
H                30.2427280008       38.3867289110       36.7732332942
H                28.2644118493       37.4075338095       37.9980341908
H                27.1890149905       38.4652286290       37.0649019327
N                29.7826222110       39.2743336253       34.4391545913
C                29.7497049433       40.0316958371       33.2061473795
C                28.9079167006       39.3303203265       32.1156520796
O                29.1349342916       39.4950137911       30.9288731784
C                31.1646139808       40.3159163443       32.7067317331
C                32.0210079618       41.0078492835       33.7650672377
C                33.5013240385       40.8666216743       33.4545090293
O                33.9280725552       40.3308841843       32.4518587134
N                34.3146866384       41.4029105730       34.3873407505
H                30.5621424458       38.6200801148       34.5489601309
H                29.2474491914       40.9813007893       33.4419139975
H                31.6419409177       39.3784316413       32.4095838419
H                31.1067064328       40.9372906452       31.8127593474
H                31.7681278195       42.0676294070       33.8273558290
H                31.8439070072       40.5809730012       34.7546024820
H                33.9613622889       41.7521348109       35.2594436573
H                35.3118876083       41.3296007169       34.2618674268
N                27.9180565759       38.5660554822       32.5914309048
C                27.0054621770       37.7831071178       31.7731738377
C                27.6360967685       37.3635617459       30.4287527088
O                27.1390266418       37.6950730765       29.3537463303
C                25.6838782860       38.5181490396       31.5351034586
C                24.7445653110       38.3779878149       32.7295980698
C                23.4297195214       39.1356540005       32.4795403086
N                22.3027839316       38.5396547139       33.1655313609
C                21.5073498643       37.5838857405       32.6847068786
N                21.6516416106       37.1028838550       31.4548912815
N                20.5418290908       37.1063249632       33.4673320290
H                27.8347452922       38.4561806617       33.5931052122
H                26.7965685422       36.8577804528       32.3233497498
H                25.8920415529       39.5657292151       31.3102475234
H                25.2407594912       38.0754248747       30.6419922658
H                24.5517723908       37.3143811121       32.8803556508
H                25.2402764036       38.7582321589       33.6239457334
H                23.5240750315       40.1667140843       32.8226691275
H                23.2303871738       39.1709077906       31.4072921220
H                22.2273815269       38.7592463315       34.1490024440
H                22.3916655675       37.4240016838       30.8531047075
H                20.9501451158       36.4970063681       31.0578626098
H                20.3986961514       37.4799650466       34.3900329468
H                19.9099730565       36.3894594680       33.1456425506
N                28.6625828081       36.5208383696       30.5147471451
C                29.1792767998       35.8710067499       29.3233481832
C                28.0310908559       35.0515324114       28.6148907813
O                27.1692268399       34.5428072905       29.3593294932
C                30.3011685208       34.9548615631       29.8296281596
C                30.6581162861       35.5416217986       31.1953729111
C                29.3121140356       36.0343880057       31.7103433933
O                28.1195193330       34.9395642655       27.3845637458
H                29.5354616260       36.6224044134       28.6061091466
H                29.9132223519       33.9402659129       29.9330940017
H                31.1392362800       34.9332175135       29.1358120993
H                31.1241674610       34.8430916352       31.8860120366
H                31.3231108750       36.3985254347       31.0729297248
H                28.7158939053       35.2207796187       32.1416948654
H                29.4347801667       36.8181104457       32.4546587064
N                32.4963398469       30.2872242763       39.6171496028
C                32.5956397544       31.6342543676       38.9927095063
C                32.9697936279       31.4091635284       37.5197045261
O                33.5962564679       30.4069313407       37.2101433840
C                33.7277318131       32.4596953388       39.6340668988
C                33.5168094093       32.6495934704       41.1152525352
C                34.1473795820       31.7975543229       42.0159835159
C                32.7031277685       33.6654272474       41.6022510972
C                33.9636781271       31.9530312669       43.3798726100
C                32.5232384599       33.8226106674       42.9678723775
C                33.1425194756       32.9589293538       43.8573306948
H                33.3132452818       29.7429031838       39.2679849098
H                32.5098778119       30.3452514783       40.6492933231
H                31.6429319654       29.7961685119       39.3069481369
H                31.6655990605       32.1933995942       39.0920174234
H                34.6936964794       31.9835211720       39.4563852606
H                33.7475192409       33.4266600173       39.1313113820
H                34.8190292978       31.0337609448       41.6556867433
H                32.2246966805       34.3467034957       40.9150282594
H                34.4757294048       31.3000607915       44.0688610570
H                31.9099365521       34.6273633049       43.3459276297
H                32.9965886997       33.0803650492       44.9201879247
N                32.5770181116       32.3547093736       36.6681693664
C                33.1913146575       32.3607210582       35.3552535200
C                34.6475853455       32.8150290544       35.5076105446
O                34.9468597656       33.7659878591       36.2094697928
C                32.5272636150       33.3292413811       34.3725726667
C                31.0970877202       33.0036429704       34.1316680077
N                30.0796771550       33.8549035205       34.4680158652
C                30.5601672639       31.8780093781       33.5682386540
C                28.9601691368       33.2629568010       34.0979468450
N                29.2126269666       32.0629055373       33.5593977853
H                32.0642952487       33.1750646756       37.0101686722
H                33.1494680753       31.3350135481       34.9759346377
H                32.5915583957       34.3494886516       34.7542545420
H                33.0796813240       33.2890813164       33.4302151677
H                31.0179687187       30.9901294427       33.1878655596
H                27.9910040512       33.6989232016       34.2204989194
H                28.5455645503       31.3967272421       33.2003827550
N                35.5475707044       32.1278052758       34.7887092446
C                36.9323168082       32.5636874402       34.8100772103
C                36.9807617171       34.0442873404       34.4211269856
O                37.4652004187       34.8854946510       35.1638249046
C                37.7988203811       31.6656685255       33.9343211610
C                37.9599037225       30.2878908738       34.5786429309
C                38.7178357962       29.3324955618       33.6714372610
O                39.2683259034       29.6778553987       32.6376335787
N                38.7035316969       28.0570642951       34.0938186435
H                35.3006643113       31.3157407641       34.2403279025
H                37.3037527769       32.5420322936       35.8432005358
H                37.3628312998       31.5546342415       32.9397028843
H                38.7808202751       32.1247645784       33.8087819568
H                38.5178643714       30.3879709189       35.5123270439
H                36.9857144144       29.8541948415       34.8082090851
H                38.2762842721       27.7962685391       34.9677455741
H                39.2152725313       27.3642845270       33.5722464247
N                36.3744871759       34.3699854974       33.2657534708
C                36.4408506473       35.7312701793       32.7512103388
C                36.1727377521       36.7398270906       33.8727815698
O                36.9196371312       37.6844254609       34.0804411906
C                35.4698343601       35.9032901417       31.5654527945
C                35.1520795386       37.3781454464       31.3230026672
C                36.1022104440       35.2993018817       30.3110946344
H                36.1523956495       33.6405366117       32.6011435301
H                37.4644987526       35.9568529673       32.4190174733
H                34.5346057105       35.3847960088       31.8044721093
H                34.5834652332       37.5015357628       30.4052323496
H                34.5677673761       37.8169158361       32.1292184954
H                36.0676957296       37.9590268523       31.2390830188
H                35.4023241937       35.3334457312       29.4814361954
H                36.9831849877       35.8784000866       30.0429962105
H                36.4119668870       34.2683673182       30.4613839511
N                35.0513762691       36.5293634796       34.5825635975
C                34.5692547380       37.4880148208       35.5454467155
C                35.4859414709       37.6931018344       36.7613564659
O                35.3452374560       38.7013892984       37.4472434872
C                33.2021732702       37.0591601036       36.0645368307
S                32.0170825475       36.9433899921       34.6905239778
H                34.4135786268       35.7959499961       34.3083881215
H                34.4799874527       38.4794747781       35.0708120173
H                33.2969262516       36.0896736629       36.5610781155
H                32.8476261206       37.8094550798       36.7755877194
N                36.3129993303       36.6946072795       37.0580976066
C                37.2409803957       36.7094247998       38.1717961047
C                38.6653874449       37.1137595201       37.7647914313
O                39.4318352018       37.5961895651       38.5977838229
C                37.1196441994       35.3424322141       38.8775741236
C                38.2543930485       35.0210858279       39.8462354246
C                35.7761441617       35.3275490311       39.6070359704
H                36.3953097381       35.9081546976       36.4240927111
H                36.9208793422       37.5159738249       38.8454116001
H                37.1182693185       34.5961035201       38.0753669767
H                38.0371932830       34.0952204599       40.3747822097
H                39.2029317390       34.9011615806       39.3255393221
H                38.3730655654       35.8217359557       40.5706200468
H                35.6582563815       34.4095052878       40.1713490222
H                35.7320275840       36.1700978589       40.2932680927
H                34.9649954677       35.4286502095       38.8896207740
N                38.9391576537       37.0171351771       36.4657381546
C                40.2151496325       37.3883715442       35.9157024573
C                41.2985630197       36.2539238471       36.0709973393
O                42.4659818967       36.6430380344       36.2497101278
O                40.8938664410       35.0836432857       35.9859172465
H                38.3385584606       36.4583546612       35.8781580658
H                40.0859137184       37.5975710106       34.8509976032
H                40.5808825032       38.2827332780       36.4257398887
Zn               30.2019868457       35.6839806043       35.6960023355
