 120 
 
N                 2.6967193511       21.5856372518       -3.0208934311
C                 2.8165676662       20.7005724372       -1.8767770907
C                 3.1265881873       19.2747999746       -2.3442199302
O                 2.7711831153       18.8931677364       -3.4547140480
C                 1.4093947164       20.7434539059       -1.2677892466
C                 0.5058859078       20.9045756836       -2.4854845822
C                 1.3071659305       21.8367795200       -3.3867384737
H                 3.5611643191       21.0520978062       -1.1602316232
H                 1.1915693729       19.8454856121       -0.6975787887
H                 1.3400810212       21.6141667434       -0.6167104425
H                 0.3723196681       19.9367123904       -2.9671363224
H                -0.4696837142       21.3105789582       -2.2332152515
H                 1.1695254254       21.6274413035       -4.4486577583
H                 1.0753332543       22.8892494228       -3.1918377619
N                 3.7869399465       18.4906524720       -1.4759505248
C                 3.9141006230       17.0828007938       -1.8278104940
C                 2.5221686958       16.5957158155       -2.2530436261
O                 1.5138801515       16.9395278400       -1.6400111695
C                 4.4662398719       16.2565324851       -0.6711901644
C                 5.9023141590       16.6280473158       -0.2787921783
C                 6.3501854961       15.7252204653        0.8714559253
C                 6.8749945288       16.5030764284       -1.4503709342
H                 3.6989238750       18.7248172966       -0.4924031131
H                 4.5825794673       17.0338986526       -2.6912584148
H                 3.8007213118       16.3871618240        0.1865855988
H                 4.4275718331       15.2020340218       -0.9557782741
H                 5.8965359256       17.6695867074        0.0561734544
H                 7.3391864664       16.0100875228        1.2148429869
H                 5.6526589771       15.7889745355        1.7017226170
H                 6.3834343267       14.6899326691        0.5395619697
H                 7.8899917799       16.6426969399       -1.0910889896
H                 6.7983132152       15.5184972849       -1.9072660712
H                 6.6736430296       17.2500908012       -2.2142940618
N                 2.4602678928       15.8190097936       -3.3435161858
C                 3.5483148524       15.0920774440       -3.9672108588
C                 4.4875606016       15.8841005375       -4.8854270264
O                 5.5087239243       15.3487744720       -5.2952933989
C                 2.8271689491       14.0345315995       -4.8259501498
C                 1.5275704353       14.7366711760       -5.2072680966
C                 1.1667838310       15.4605431165       -3.9167875983
H                 4.1808748696       14.6103914373       -3.2143439542
H                 3.4274254955       13.7380996243       -5.6829296659
H                 2.6122123893       13.1535148302       -4.2215915052
H                 1.7047374151       15.4559208759       -6.0064015297
H                 0.7522201392       14.0420242435       -5.5181592296
H                 0.5758808441       16.3660709847       -4.0659407003
H                 0.6278259445       14.8060466646       -3.2222245320
N                 4.0891839874       17.1008599134       -5.2844033387
C                 4.9350407197       17.8329702366       -6.1974464035
C                 6.1177289766       18.4973765829       -5.4799528807
O                 6.1329745177       18.6702751707       -4.2703515077
C                 4.1270051821       18.8845740292       -6.9638745013
O                 4.8151172843       19.1685244369       -8.1568060146
H                 3.4137150737       17.6298987073       -4.7372419092
H                 5.3338347528       17.1099239914       -6.9192601720
H                 3.1309149382       18.4765866962       -7.1794742393
H                 4.0032800678       19.7893417643       -6.3521484683
H                 4.3161566151       19.8661554844       -8.6196448959
N                 7.1153587223       18.8505658499       -6.3029411127
C                 8.2958045119       19.5748497279       -5.8605308846
C                 8.3409808598       20.9336338383       -6.5731033368
O                 7.3592302219       21.6692327588       -6.5119347262
C                 9.5584064995       18.7205241270       -5.9617127444
C                 9.5482997716       17.5704915022       -4.9464846835
C                10.9784507570       17.1564058039       -4.5992014569
C                11.0260299943       16.0868801651       -3.5136732015
N                12.3838765010       16.0458933136       -2.9228918122
H                 6.9511243563       18.7702548297       -7.2972531383
H                 8.1153546004       19.8105954501       -4.8006223285
H                 9.6683546897       18.3296250222       -6.9737886835
H                10.4085595366       19.3612507692       -5.7270912740
H                 9.0453314244       17.9059478357       -4.0383915798
H                 8.9848245816       16.7232612929       -5.3366647947
H                11.4851523073       16.8065820884       -5.4990450379
H                11.5071926854       18.0358360063       -4.2255429081
H                10.3214486572       16.3435580876       -2.7223528343
H                10.7611755931       15.1099621956       -3.9198965521
H                12.4524512112       15.3329223865       -2.1928939336
H                13.0898238605       15.8664674259       -3.6420381942
H                12.5985183044       17.0338946506       -2.4662990069
N                 2.8453936267       18.6064841798        4.7277030337
C                 3.4669711172       18.9507412483        3.4658017441
C                 2.5679832233       18.6423776391        2.2626876348
O                 2.8570559343       19.0778509032        1.1598604073
C                 4.8410642877       18.2993626836        3.3089353784
C                 5.8854379278       18.9085557544        4.2493691806
C                 7.2978161061       18.5275591802        3.8073119359
C                 8.3475881694       19.0828739407        4.7686103265
N                 9.6995779731       18.9997068390        4.1660782487
H                 3.3309128498       17.9637071268        5.3405615484
H                 3.5938685495       20.0438734592        3.4273206393
H                 4.7553945959       17.2259824887        3.4799957318
H                 5.1516508712       18.4597328742        2.2754537151
H                 5.7980156139       19.9960417957        4.2317985911
H                 5.7203138607       18.5767626061        5.2753696380
H                 7.3798816769       17.4416645975        3.7583116163
H                 7.4662126560       18.9350364144        2.8093423793
H                 8.1420289057       20.1282890548        5.0030220487
H                 8.3408136198       18.5204044285        5.7035099880
H                10.4954574312       19.0052226103        4.9350286435
H                 9.8132064982       18.1097318468        3.6713099284
H                 9.8633909760       19.7798312573        3.5244560675
N                 1.4594082443       17.9192941610        2.4860277028
C                 0.4671218912       17.7273454281        1.4481510492
C                -0.3987390053       18.9787180586        1.2297286023
O                -1.1758498234       19.0312798734        0.2856558268
C                -0.4040794640       16.4934203177        1.7382022521
C                -0.7220643357       15.6693550100        0.4842113456
O                -0.4903154219       14.4690782444        0.4372020049
N                -1.3048745952       16.3506982527       -0.5009081727
H                 1.2558948394       17.5631722158        3.4081658435
H                 1.0027567056       17.5726717881        0.4990109946
H                 0.1221552615       15.8254351569        2.4207972271
H                -1.3502320752       16.7876191858        2.1958550994
H                -1.3927154865       17.3623190599       -0.4495882059
H                -1.4751139274       15.8858252994       -1.3770578277
H                 3.3127770400       22.2390127462       -2.9611156146
H                 9.1605546879       21.2071923857       -7.0765558782
H                 2.7292440850       19.3518208831        5.2186027003
H                -0.3277319849       19.7520666597        1.8597206214
