 449 
 
N                21.5649378662       35.2721669645       14.2313040323
C                20.7984302673       34.1142789409       14.6720622890
C                20.6760626044       33.1015585233       13.5417959169
O                20.7098684508       33.4682151860       12.3647292980
C                19.4229219192       34.5780599023       15.2069671967
O                18.8800034582       33.4965864567       15.9572035815
C                18.5544540718       35.0313448375       14.0638880830
H                21.3821028449       35.6529021461       13.3075911344
H                21.3371966233       33.6634596285       15.5110075571
H                19.6217059904       35.4288423752       15.8791458447
H                17.9256796584       33.6503834194       16.1461235814
H                17.6299890866       35.4629676788       14.4465361650
H                19.0803018185       35.7800754164       13.4794214130
H                18.3025417954       34.1869143973       13.4272947455
N                18.0132290326       30.7496302720       11.6555217178
C                16.5772924015       30.5569024890       11.4220348397
C                16.5076277308       29.4759182724       10.3729241462
O                17.2197140468       29.5522388147        9.3779182281
C                15.9021162973       31.7886230696       10.8408619756
C                16.1059609779       33.0907697141       11.6772386166
C                14.3844934549       31.5121637205       10.6284517515
C                15.5265093157       32.9221289123       13.1093072377
H                18.6091118528       30.8457612421       10.8404967779
H                16.1150877751       30.2428370241       12.3571079270
H                16.3600216144       31.9755611038        9.8609169834
H                17.1728834616       33.3064360755       11.7390207925
H                15.6047351505       33.9134514271       11.1703607530
H                13.8781804565       32.4355167252       10.3659856373
H                14.2391984921       30.7847947397        9.8339023159
H                13.9560621596       31.1031344099       11.5382089214
H                15.5842628157       33.8681532030       13.6402310210
H                14.4882657045       32.6186472101       13.0650213152
H                16.1020581801       32.1885310213       13.6624467923
N                11.5320803595       38.5896094186        7.8568072692
C                12.8280791808       39.0358918149        8.3456351846
C                13.3783921927       40.1725012854        7.4609477766
O                13.9601610716       41.1674153946        7.8910238079
C                13.8393213388       37.8643646782        8.3753910217
C                13.6013244811       36.9438341795        9.5354083895
C                12.6509427260       35.9201919428        9.4433500146
C                14.2551320075       37.1919679255       10.7326615981
C                12.3353197360       35.1659177297       10.5683501171
C                13.9507382780       36.4187815377       11.8598608416
C                12.9811883796       35.4215667278       11.7790816332
H                11.5179921064       37.7633491399        7.2716577197
H                12.6828513860       39.4500500659        9.3508999100
H                13.7636933352       37.3411113350        7.4190623210
H                14.8422672976       38.2924982422        8.4295253385
H                12.1538910289       35.7356424803        8.5037665111
H                14.9972429689       37.9723713618       10.7890486845
H                11.5950633757       34.3871265028       10.4977841313
H                14.4766585631       36.6044271234       12.7808689458
H                12.7311405968       34.8457025082       12.6550524193
N                18.7590034185       40.4404952898       17.0114220467
C                18.0633357248       39.5541248610       16.0459185575
C                17.7206430848       38.2161133217       16.6953161099
O                16.7758151670       37.5135855107       16.2625244716
C                18.9013752127       39.4051694664       14.7569686979
C                20.2119255808       38.6820988201       15.0599755357
C                18.0070405858       38.7067337821       13.7011476173
H                19.6109832785       40.8906251218       16.7073147607
H                17.1048489323       40.0234234184       15.7869785264
H                19.1323194083       40.4121980878       14.4022579136
H                20.7707618831       38.5347462524       14.1396309305
H                20.8193144531       39.2691567605       15.7391004902
H                20.0283220340       37.7061814627       15.5033642316
H                18.6007807998       38.4641086489       12.8234214609
H                17.5845688757       37.7960718301       14.1069226380
H                17.2009812875       39.3707163651       13.4082008383
N                18.4559599919       37.7542881843       17.7068675423
C                18.0534146636       36.4715619535       18.2739511848
C                16.6792796970       36.6254547201       18.9493454955
O                15.7736386515       35.8462583193       18.6389886091
C                19.1044632512       35.9729256150       19.3354000322
C                18.5615498269       34.7878734540       20.1125132356
C                20.3999645438       35.5701876666       18.6101453489
H                19.2211970890       38.2695615505       18.1334467278
H                17.9449815087       35.7396773144       17.4713137880
H                19.3187413411       36.8079682509       20.0035181493
H                19.3158660880       34.4236717036       20.8043722888
H                17.6624136599       35.0545488192       20.6596530953
H                18.3074308091       33.9722297951       19.4385714398
H                21.1546434461       35.2727420859       19.3315359683
H                20.2215011017       34.7260644792       17.9504846360
H                20.7974452859       36.3963407665       18.0286345759
N                16.5732160088       37.5655184426       19.9012175957
C                15.2968097508       37.6852775371       20.6016572520
C                14.1683708795       38.1654003745       19.7147194921
O                13.0485160501       37.6411415461       19.8155577845
C                15.4167889030       38.6096014725       21.8200980760
C                16.3456443916       37.9762047679       22.8495128032
C                15.7810622199       36.7337005292       23.5592605802
C                16.8375110770       35.6520928543       23.7217439474
N                18.1240337812       36.2951433421       24.0881979563
H                17.3461500017       38.1806694973       20.1454384521
H                15.0096484728       36.6777460352       20.9286407580
H                15.8044816426       39.5730051099       21.4971512262
H                14.4219303048       38.7662995014       22.2373233983
H                17.2428011365       37.7238741393       22.2918814853
H                16.5955590276       38.7379125763       23.5822777105
H                15.4112696286       37.0327690207       24.5392352116
H                14.9286524163       36.3317329559       23.0157471820
H                16.5460760290       34.9438336137       24.4950858409
H                16.9806543483       35.0854058731       22.8018150410
H                18.8677302678       35.6381998271       24.4042446489
H                18.5369451307       36.7670115120       23.2753224370
H                17.9760237360       37.0507935369       24.7991654728
N                14.4669382917       39.1463130144       18.8963379540
C                13.4405849495       39.6740628148       18.0135400578
C                13.0611262743       38.6250437214       16.9652425943
O                11.8939662925       38.5132380510       16.5693419854
C                13.8822554329       41.0122580157       17.4016817251
O                13.9477177572       41.9656692690       18.4623922736
C                12.8978655039       41.5034634734       16.3504074244
H                15.3754855276       39.5912667283       18.8987732863
H                12.5375469515       39.8537765709       18.6143961777
H                14.8846227599       40.8835809557       16.9668749480
H                14.6369934174       41.7606981903       19.1235552060
H                13.1855030394       42.5019771821       16.0393578851
H                12.9030615918       40.8297711836       15.5011884620
H                11.8984981676       41.5358903323       16.7735258067
N                14.0424843161       37.8101800174       16.5654680625
C                13.6956888846       36.7511491624       15.6270137082
C                12.7194312964       35.7481506580       16.2537200452
O                11.7911852090       35.2486021815       15.5950613477
H                15.0352123462       37.9445954340       16.7260555752
H                13.2219238962       37.1604671151       14.7304929405
H                14.6161683421       36.2324839826       15.3567179203
N                12.9189637747       35.4574233550       17.5416325468
C                11.9773884216       34.5332402231       18.1822325064
C                10.5896438804       35.1563001813       18.2582292726
O                 9.5676490254       34.4681788095       18.1825082513
C                12.4901326309       34.2379041965       19.6218649753
C                13.7301534669       33.3574655989       19.5215866124
C                13.4954775742       31.8694458736       19.3864124477
N                13.0762356020       31.3041716267       20.6634748940
C                13.0383627638       30.0027148849       20.9257321146
N                13.6054260252       29.1095566104       20.1272425329
N                12.3751112182       29.5787002138       22.0076102563
H                13.7385773004       35.7715078812       18.0467861580
H                11.9073080802       33.6169985478       17.5895033221
H                12.7173053547       35.1876697099       20.0996456652
H                11.6959249270       33.7456319546       20.1799591172
H                14.3304842235       33.6811649209       18.6748377947
H                14.3464762813       33.5104967433       20.4094253502
H                12.7309885209       31.6583145929       18.6319738101
H                14.4325682401       31.4062274820       19.0789119820
H                12.5169865801       31.9195460044       21.2390538825
H                14.1209538655       29.3468779687       19.2874666496
H                13.5977549413       28.1381036363       20.3919788504
H                12.0309566414       30.2424570609       22.6814625616
H                12.4264483821       28.6140909799       22.2922036013
N                10.5640770242       36.4608393230       18.5457319979
C                 9.2903102784       37.1864873846       18.5179898415
C                 8.5867124647       37.1636850389       17.1520656930
O                 7.3777783514       36.9958775274       17.1235351941
C                 9.4889231858       38.6277826962       18.9859160946
O                10.0089158039       38.5859584406       20.2988654903
C                 8.2293722303       39.4744242529       18.8687085138
H                11.4065992750       36.9879461535       18.7459565645
H                 8.6036037647       36.6798838326       19.2126869988
H                10.2781533003       39.0747725217       18.3667893382
H                 9.3160300304       38.3061329640       20.9287784036
H                 8.4057933199       40.4546552278       19.3006979274
H                 7.9551523701       39.5987197877       17.8274769607
H                 7.4020770564       39.0113949879       19.3997753888
N                 9.3696801669       37.3388602326       16.0762564828
C                 8.7841214501       37.2292726655       14.7053320488
C                 8.2562643837       35.8119821772       14.4523088887
O                 7.1912994859       35.6039072693       13.8446718339
C                 9.8239688327       37.6654678068       13.6841201727
C                10.0155295268       39.2067991087       13.7409032322
C                 9.5095762389       37.2197395433       12.2596421610
C                11.2605356387       39.5857099999       12.9371438532
H                10.3532445719       37.5577648903       16.1875325716
H                 7.9065688422       37.8855051622       14.6560948423
H                10.7684914878       37.1963749701       13.9814468338
H                 9.1326448491       39.6907368267       13.3253580045
H                10.1482877041       39.5062092029       14.7795927895
H                10.3705463607       37.3748030833       11.6180233268
H                 9.2559478896       36.1658096122       12.2284934726
H                 8.6705386960       37.7841081074       11.8589192924
H                11.5052613807       40.6319575508       13.1015317677
H                12.1083626153       38.9775347848       13.2392211407
H                11.0987207339       39.4510762195       11.8722741702
N                 8.9988625798       34.8039715218       14.9063550997
C                 8.4907168648       33.4416812910       14.7252937005
C                 7.1988560825       33.1727456371       15.5196816573
O                 6.3620436026       32.3934823242       15.0671751589
C                 9.4950818345       32.3694936413       15.1375075878
C                10.8616365653       32.4298678668       14.4016228855
C                11.7605382629       31.2665733711       14.8472422563
C                10.6597909977       32.4544000189       12.9019046132
H                 9.9218718944       34.9475904293       15.3032770729
H                 8.2215425076       33.3216250606       13.6704033003
H                 9.6627289629       32.4524062999       16.2127166526
H                 9.0266023244       31.4049454391       14.9333362212
H                11.3643748913       33.3550692797       14.6910773974
H                12.7029031243       31.3112875138       14.3110979000
H                11.9461579523       31.3173234999       15.9151377065
H                11.2913722130       30.3088347021       14.6278761378
H                11.5748950375       32.1735804383       12.3832595499
H                 9.8705836303       31.7773712237       12.5915426226
H                10.4047206154       33.4595221216       12.5859902081
N                 7.0899265742       33.7863368518       16.6826059560
C                 5.9993719199       33.5885461805       17.6234323702
C                 6.2832274204       32.4515201007       18.5677666684
O                 7.2761407126       31.7059226281       18.4736956009
H                 7.9028296164       34.2646339483       17.0607232477
H                 5.8603049287       34.5128400029       18.1835885944
H                 5.0872833678       33.3696425045       17.0600449209
N                 5.3206892613       32.2222471116       19.4636488871
C                 5.5751181174       31.1987645123       20.4894343050
C                 5.8863979050       29.8507559614       19.8294970367
O                 5.3862654058       29.4596175777       18.7951578957
C                 4.3557793215       30.9686102382       21.3831696535
H                 4.5756222726       32.8952808113       19.6026186518
H                 6.4367931343       31.5122794791       21.0883285829
H                 4.6061221518       30.2471977020       22.1556967010
H                 4.0488980135       31.8971805313       21.8567254498
H                 3.5267113584       30.5736280710       20.8002391100
N                 6.7133922597       29.0561328901       20.5228840296
C                 7.0794604184       27.7653493287       19.9476761216
C                 5.8806450610       26.8644920441       19.6890816977
O                 5.8323858542       26.1411499924       18.6941464492
C                 8.0714501596       27.0601232180       20.8923838484
O                 9.2354469641       27.8685139865       20.9607821084
C                 8.4745074325       25.7079312929       20.3522055009
H                 7.0737397813       29.3149014906       21.4363288477
H                 7.5593539849       27.9357735237       18.9764109118
H                 7.6133196830       26.9596044951       21.8812742262
H                 9.0585155784       28.6315078433       21.5273045435
H                 9.1895485309       25.2514403068       21.0310733793
H                 7.6173613704       25.0501234180       20.2630530188
H                 8.9427394135       25.8215390035       19.3800602634
N                 0.7605875202       31.2970332003       20.1725501873
C                 1.3226761530       32.3645991910       19.3598580753
C                 0.2503119150       33.3814691446       18.9443147622
O                -0.9554017042       33.1581759946       18.9843005855
C                 2.0386748375       31.7846578373       18.1263315228
O                 1.0686835278       31.3699017733       17.1929626446
H                 0.2760453765       30.5542433246       19.6820251223
H                 2.0408712189       32.8922958461       19.9963675085
H                 2.6175051072       32.5681324652       17.6361213086
H                 2.6988306670       30.9641810227       18.4315100323
H                 0.5257778222       30.6399424994       17.5554155104
N                 2.5335552366       36.8562129137       13.7243988679
C                 3.8517343975       36.1450637591       13.7998061876
C                 3.8115045704       34.9866365541       12.7679962316
O                 2.7601417129       34.6273224819       12.2368636691
C                 4.1139894014       35.6196855057       15.2007132623
O                 3.1869177863       34.5477643725       15.4765301134
C                 4.1256673722       36.6927666828       16.2684032350
H                 1.7529531431       36.4356579852       14.2099688181
H                 4.6147111444       36.8680514016       13.5110445734
H                 5.0947494744       35.1294738628       15.1744353099
H                 2.3458407624       34.9565028735       15.7544980477
H                 4.1072591074       36.2185595620       17.2449671967
H                 5.0313261401       37.2828401971       16.1848706416
H                 3.2584142182       37.3446815327       16.1837763925
N                 4.9826584872       34.4093593489       12.4668804303
C                 5.0052753373       33.2872117890       11.5205456254
C                 4.1111069104       32.1621055030       12.0271921728
O                 3.2878803454       31.6197286141       11.2856068997
C                 6.4601691788       32.8051965066       11.2567867934
C                 7.1445214705       33.9216492491       10.4703513072
C                 6.4224310944       31.4926367237       10.4484039258
C                 8.6823650604       33.7900182670       10.4036052013
H                 5.8465917018       34.7322067848       12.8978668661
H                 4.5610736681       33.6261167625       10.5761011345
H                 6.9484786456       32.6306197866       12.2157002795
H                 6.7363523299       33.9182256750        9.4577527740
H                 6.9065857038       34.8884663611       10.9148650222
H                 7.4332613259       31.1513517665       10.2507188735
H                 5.9009611299       30.7130508176       10.9951707385
H                 5.9166004833       31.6492107255        9.5006036097
H                 9.0690490413       34.4454121224        9.6282751152
H                 9.1039831205       34.1036250740       11.3488526086
H                 8.9780174535       32.7679682969       10.1964702868
N                 4.3013016442       31.7320190563       13.2780859999
C                 3.4848146177       30.5861152450       13.7059565859
C                 2.0193538117       30.9529383888       13.9120077638
O                 1.1417850670       30.1076557628       13.7113537539
C                 4.0567819642       29.9817275224       14.9934043486
C                 5.3630654513       29.2657474643       14.6580224623
C                 6.1459612371       28.9566476809       15.9259852009
N                 7.4391764177       28.3732922721       15.5630482332
C                 8.5238681991       28.6162906697       16.2746951907
N                 8.4761248363       29.5174208135       17.2576414985
N                 9.6097237061       27.8683599494       16.0866827379
H                 5.0303508815       32.0812071672       13.9013963474
H                 3.4991940058       29.8402789271       12.9019391901
H                 4.2347873287       30.7858787727       15.7057699708
H                 3.3224489441       29.2981374577       15.4151128524
H                 5.1585386689       28.3563677499       14.0918032314
H                 5.9748725138       29.9200327921       14.0369356950
H                 6.2647086832       29.8974699309       16.4541023958
H                 5.5967434290       28.2714970178       16.5777451133
H                 7.4407319871       27.7383858090       14.7734918787
H                 7.7293276596       30.1693029209       17.4173575855
H                 9.3316587067       29.6301994015       17.8159042615
H                 9.6681836567       27.2263206077       15.3033196026
H                10.4753738812       28.0888736849       16.5657888679
N                 9.1611989642       26.4161062287       11.5455502027
C                10.4741734773       27.1208859075       11.5477226893
C                11.1549720351       26.9223159950       12.9050995942
O                10.5461274793       26.4998776239       13.8926051403
C                10.2244219841       28.6131979589       11.2080150764
S                 9.0751055276       29.2914010821       12.4438796593
H                 8.5558269945       26.5834521684       12.3498194937
H                11.1004805070       26.6925629661       10.7625433634
H                11.1493627870       29.1853858034       11.1930564155
H                 9.7291771869       28.6866402920       10.2415736265
H                 9.9795686285       29.3786301148       13.4249721752
N                12.4718784339       27.1035066071       12.9056588331
C                13.2754955040       27.0999124614       14.1029664889
C                13.9701455445       28.4576637461       14.2136000032
O                14.3935077004       29.0104843555       13.1864549132
C                14.4124446933       26.0419821259       13.9342498042
C                15.4601046970       26.1820232114       14.9765700459
N                15.3826219317       25.6061296677       16.2136028869
C                16.6108979935       26.9014565233       14.8891891641
C                16.4672636271       25.9829991038       16.8548668479
N                17.2412121098       26.7811459315       16.0817598064
H                12.9374513256       27.4221518622       12.0629907913
H                12.6526326390       26.8919481321       14.9738879115
H                13.9756796690       25.0464862710       13.9769246036
H                14.8719653787       26.2056852121       12.9604357963
H                17.0146745534       27.4944809983       14.0929885519
H                16.7280627064       25.7018375699       17.8547635256
H                18.1498311922       27.1697392964       16.3280128831
N                14.1586356753       28.9793355524       15.4358310130
C                15.0575845062       30.1006538507       15.5909771982
C                15.8630734817       29.8423804290       16.8566752234
O                15.3346175921       29.3154402369       17.8379299777
H                13.7556617938       28.5411607872       16.2652915568
H                15.7155868668       30.1624632381       14.7249828243
H                14.5188712745       31.0458229540       15.7111802539
N                17.1334113756       30.2293494002       16.8604327960
C                17.9774081081       30.0670484250       18.0326433139
C                17.3028094875       30.7293460734       19.2145073220
O                16.6707035720       31.7676784216       19.0861933352
C                19.3291441188       30.7730658845       17.7877832580
O                19.9015068930       30.2932401250       16.5929142327
H                17.5881121985       30.5256055855       16.0029831931
H                18.1502883935       29.0031952658       18.2391192536
H                19.1701231588       31.8435860095       17.6365454908
H                19.9840829025       30.6010616287       18.6535216011
H                19.9032736799       29.3130108808       16.6070710898
N                17.5110796968       30.1222690071       20.3864316587
C                16.8671146976       30.6577241383       21.5774308332
C                17.7794050503       31.5323542499       22.4249717005
O                17.2970648966       32.1874569859       23.3435953841
C                16.3239075503       29.5291338546       22.4940760785
C                17.3838175484       28.5276451730       23.0260678877
O                18.6014381069       28.7793039850       22.8647909012
O                16.9367983906       27.5203854143       23.6131008884
H                17.9480071923       29.2095100513       20.4374969487
H                16.0414419893       31.2944416308       21.2425348554
H                15.8621532735       29.9940483381       23.3645637277
H                15.5854968453       28.9382140266       21.9554463247
O                 8.5499565658       37.8747943934       22.4107145057
H                 9.2816554927       37.6502406675       22.9974440984
H                 8.1803798696       38.7023174512       22.7365627334
O                11.3073830554       40.5818831348       21.6237354089
H                11.2873686704       41.1059930039       20.8028647757
H                10.4447277473       40.7140026175       22.0287647490
O                 9.9018105461       31.9967503560       19.4934699254
H                 9.9219320420       32.8313967417       19.0030209338
H                 8.9841530430       31.7138014927       19.3789749883
O                16.3010830981       33.5828286135       16.9417801576
H                16.4283646016       32.8730619855       17.5929326813
H                16.1075246757       34.3729796593       17.4746548909
O                11.7841570981       36.6762915436       22.1891027346
H                12.0574416690       37.2453551129       21.4572211776
H                10.9077889600       36.3699423920       21.9465001923
O                 5.5813452394       36.8445324444       19.2830670815
H                 6.1909710742       36.8627494979       18.5233507204
H                 5.0566222158       37.6604763096       19.2136590849
O                10.7228904031       29.4367147215       18.9901471192
H                10.5747524702       30.3475250912       19.2918790418
H                10.2884866582       28.8493871028       19.6291153306
O                 7.8456127117       29.9060536919       23.0065848315
H                 8.3521457546       29.6724667233       23.7931973484
H                 7.1560947500       30.5054874055       23.3018487576
O                12.4460833378       27.6713810676       17.3310701536
H                12.8652665161       26.9297351342       17.7752069639
H                12.0598254100       28.2415325298       18.0158099624
O                 3.6053405452       34.8382099454       19.6832113683
H                 4.2998858832       35.5136839423       19.5980143661
H                 3.2701522261       34.9197700530       20.5906230324
O                 6.9472579790       35.9392538007       21.4990442233
H                 7.4869937928       36.6503850543       21.8704656845
H                 6.4270588553       36.3241344555       20.7736627651
O                 9.5003294678       42.9399098716       17.7433435144
H                 8.7104066205       43.2438846699       18.2084540169
H                10.1341555143       42.6571343376       18.4296665129
O                 8.2806654585       41.5918278697       22.4844188260
H                 8.4692630759       42.5268261671       22.3860111993
H                 7.5177180164       41.4152255630       21.9199773962
O                 5.3254451984       40.7840311716       20.9046199956
H                 4.8352511482       40.6129500289       21.7114767889
H                 4.9264895359       40.2190667925       20.2277520377
O                 3.8060528731       39.0089077966       19.1607880236
H                 3.1831772590       38.6913863867       19.8208088818
H                 3.2807351638       39.1128025199       18.3516056126
N                 7.8936787774       46.2866621300       20.1725501873
C                 6.6880951929       46.2396621698       19.3598580753
C                 6.3436420997       44.8025325207       18.9443147622
O                 7.1398764496       43.8700004719       18.9843005855
C                 6.8323397956       47.1497058965       18.1263315228
O                 7.6765247382       46.5170468128       17.1929626446
H                 8.7792247513       46.2384312622       19.6820251223
H                 5.8719989510       46.5977890142       19.9963675085
H                 5.8644157298       47.2592503006       17.6361213086
H                 7.2128156455       48.1316560226       18.4315100323
H                 8.5801408660       46.4118563169       17.5554155104
N                 4.9231863093       42.0820039608       16.1939114479
C                 4.6843837011       41.7675896213       14.7892246075
C                 3.2164707752       41.9990399605       14.4513544875
O                 2.3555263922       41.6977142856       15.2913355478
C                 5.0186794518       40.2801449404       14.6738561372
C                 6.1739950072       40.1816990335       15.6932987763
C                 5.6523062990       41.0029445992       16.8800879603
H                 5.3290214732       42.3715079637       14.1409428132
H                 4.1740156642       39.6706623429       14.9899115379
H                 5.3105711039       40.0126461262       13.6640507381
H                 6.3912475494       39.1554762243       15.9824507009
H                 7.0640921935       40.6451640559       15.2727380955
H                 4.9756293397       40.4105683994       17.4966540645
H                 6.4523531309       41.4189884680       17.4893136959
H                21.4216759724       35.9593942061       14.7945044835
H                20.5671965689       32.1297268238       13.7508206381
H                18.1415361828       31.5004320973       12.1349316618
H                15.8835983761       28.7035643088       10.4914851822
H                10.9971886541       38.3985952077        8.5549508323
H                13.2720341229       40.1290745630        6.4675686542
H                18.2104345390       41.1123458704       17.2516073538
H                 5.1152922899       26.8536751995       20.3326018075
H                 1.4186738308       30.8932087490       20.6349874482
H                 0.5200676261       34.2873189503       18.6177141102
H                 2.6169635017       37.6814079393       14.0738215790
H                 1.7717325248       31.8752766114       14.2086150823
H                 8.6866979258       26.6670919351       10.8231549232
H                18.7596281973       31.5683950101       22.2303858695
H                 7.9143578556       47.0584938185       20.6349874482
H                 5.4242753004       44.5832229166       18.6177141102
H                 5.5330394233       42.7410746371       16.2547803490
H                 2.9624995483       42.3874129513       13.5655412815
