 185 
 
N                39.0025124332       36.6978355839       89.0357939864
C                39.2962950401       35.9895818854       87.8051549796
C                38.4834890000       34.6967718987       87.8004401228
O                38.5441703956       33.8925755802       88.7277921944
C                40.7932543820       35.6933686867       87.7280934160
H                39.2439382211       36.2304423476       89.9128416292
H                38.9815115822       36.6243864314       86.9717890911
H                41.0065985926       35.0676065896       86.8677275019
H                41.3467610870       36.6250299081       87.6390148084
H                41.1124931802       35.1834647450       88.6337567507
N                37.6784541603       34.5302147102       86.7495281430
C                36.8315383238       33.3659430038       86.6076044120
C                37.5073228405       32.3523007322       85.6806462348
O                38.1240035061       32.6966648149       84.6846412360
C                35.4792510155       33.7919357327       86.0221173571
C                34.4713892079       32.6514124395       85.8801686430
C                33.9434209771       32.1327170470       87.2194826735
C                32.8311978242       31.1025827570       87.0377570173
N                33.4000238287       29.7981529346       86.6252085087
H                37.6988124106       35.2015149297       85.9930170488
H                36.7199117084       32.9411314939       87.6109971962
H                35.0724387257       34.5798714279       86.6599749289
H                35.6751271830       34.2231044697       85.0353937079
H                33.6343151951       33.0408587663       85.2977950263
H                34.9422778435       31.8587443376       85.2973878181
H                34.7439946232       31.6867260748       87.8088646828
H                33.5507330250       32.9734718117       87.7880688355
H                32.3134882745       30.9609967504       87.9850056043
H                32.1199570897       31.4488215102       86.2879236338
H                32.6775902444       29.0423881562       86.4884484911
H                33.9419487431       29.9082241982       85.7640816163
H                34.0679194703       29.4928854472       87.3712418630
N                37.3047801728       31.0694534034       86.0281975918
C                37.7628210283       29.9321079150       85.2595134307
C                36.7016433039       28.8420823464       85.3915196411
O                35.9699447100       28.7788353010       86.3698888454
C                39.0949115065       29.3686247780       85.7773598390
C                40.1903436575       30.4217894003       85.6971620973
S                41.8420037682       29.6709294619       85.5117179453
C                42.0556760453       28.9414740426       87.1507067111
H                36.8886580694       30.8376497645       86.9211895923
H                37.8886299544       30.2677637122       84.2256961521
H                38.9772609037       29.0306562106       86.8097728768
H                39.3846762104       28.5091902093       85.1701529045
H                40.0631937012       31.0452757385       84.8132944219
H                40.2099989289       31.0627153814       86.5792872954
H                43.0567136321       28.5248275773       87.1933185064
H                41.9590499160       29.7102186618       87.9126223500
H                41.3341266159       28.1476721256       87.3158345613
N                36.5716547610       28.0041972375       84.3626822757
C                35.5930252422       26.9239763177       84.4277876791
C                35.9861029287       25.9995355200       85.5906216699
O                37.1140581025       25.5483929038       85.6778418152
C                35.5562445581       26.1770944558       83.0964796679
C                34.9527281827       27.0715078971       82.0115611744
C                35.1612086951       26.5087379325       80.6066395958
C                34.6659065129       27.5202224525       79.5773858300
N                34.8695699898       27.0174666553       78.1906818310
H                37.2552529731       27.9896087934       83.6211075815
H                34.6165294577       27.3761279195       84.6325028677
H                36.5733455974       25.8796740494       82.8365979847
H                34.9660200447       25.2678447478       83.2100382913
H                33.8859189908       27.1897212095       82.2003313563
H                35.4123329679       28.0597240884       82.0652660544
H                36.2240545514       26.3148131095       80.4562267482
H                34.6212790161       25.5665965117       80.5105371912
H                33.6032563816       27.7157698197       79.7260897659
H                35.2081011119       28.4603932152       79.6933598817
H                34.5634596333       27.7184827520       77.5013535623
H                35.8681307138       26.8174017107       78.0300039904
H                34.3342840042       26.1496953273       78.0438199813
N                35.4922267033       26.9164515097       88.9088577057
C                35.8221455158       27.6668271516       90.1004167488
C                35.0825605265       28.9946521405       90.0393259409
O                34.7870318308       29.4997636080       88.9590839022
C                37.3491585177       27.9220763244       90.1634723116
C                38.1093385221       26.6338554641       89.9967743438
C                38.4765504240       26.1870886415       88.7317340085
C                38.4199995265       25.8428339453       91.0928177186
C                39.1222311698       24.9810272688       88.5565338060
C                39.0724476845       24.6333697136       90.9317510958
C                39.4223428093       24.1877430844       89.6612901620
O                40.0478724213       22.9982323653       89.4495644101
H                35.6506618488       27.3959897565       88.0288014497
H                35.5097664806       27.0627089772       90.9545227170
H                37.6141486242       28.6184240516       89.3654423552
H                37.5999128824       28.3921577920       91.1134079023
H                38.2597879809       26.7867252281       87.8595723349
H                38.1728558120       26.1862370823       92.0850261918
H                39.3998530301       24.6334462657       87.5744372391
H                39.3339575275       24.0361346959       91.7929829813
H                40.2170415081       22.5467494238       90.2881657322
N                34.7294190755       29.5623829254       91.1840422676
C                34.1010196440       30.8768276685       91.1772743633
C                35.1084755156       31.9549837520       90.7514790105
O                36.3114579160       31.7563921804       90.7076638747
C                33.7210963289       31.1114845575       92.6443650067
C                34.8245070289       30.3601628616       93.3820390646
C                35.0131600669       29.1055635083       92.5329235366
H                33.2456191792       30.8824112168       90.4981976696
H                33.7044157524       32.1671136905       92.9051899661
H                32.7494421009       30.6708066117       92.8593754592
H                35.7357119815       30.9570501740       93.3830936134
H                34.5635447848       30.1254118852       94.4092646755
H                36.0206446166       28.7061436419       92.6218114695
H                34.2818968662       28.3442587709       92.8188259313
N                46.6437215623       33.7383309727       91.3613196057
C                45.4760694762       33.5550796819       92.1945392398
C                45.8785054300       33.5101612203       93.6696644745
O                46.7337331343       32.7404553555       94.0941794127
C                44.7735829233       32.2405923561       91.8430792157
C                44.2162534689       32.2661675543       90.4535549813
C                42.8927586037       32.6226495672       90.2347883961
C                45.0109143684       31.9437385254       89.3643790001
C                42.3630681795       32.6280268829       88.9574859897
C                44.4894166813       31.9741976829       88.0840056233
C                43.1635249788       32.3085097332       87.8748893511
H                47.1854659931       32.9140358555       91.1335714380
H                44.8117412283       34.4061807428       92.0171968545
H                45.4933855591       31.4253666953       91.9531234109
H                43.9710310193       32.0714147865       92.5640774283
H                42.2720966103       32.8728047256       91.0824971270
H                46.0404847703       31.6505011698       89.5111862128
H                41.3206224017       32.8698976586       88.8118158986
H                45.1322261825       31.7188387895       87.2555521059
H                42.7621796628       32.2964432832       86.8734811705
N                48.2647579775       29.7243982392       92.4616314666
C                48.3378294673       29.2428542309       91.1002613603
C                48.5232869916       30.4268193167       90.1517176620
O                48.2549297909       31.5735439863       90.5141234485
C                47.0595975701       28.4794244005       90.7529590448
C                46.8663376548       27.2731541688       91.6618618068
C                45.3815156291       26.8179652304       91.7244118005
O                44.5160941246       27.7254234692       91.8563213542
O                45.1520294962       25.6026156141       91.6741949293
H                47.3611217033       30.0082329793       92.8128789686
H                49.2119679462       28.5884808350       91.0167865533
H                46.2010830120       29.1504893868       90.8618933595
H                47.1086904464       28.1541218693       89.7128430132
H                47.4665407037       26.4319764978       91.3192103453
H                47.1636484543       27.5254786324       92.6835564260
N                47.6266676149       31.3841893654       85.8287081295
C                47.0054808834       31.0311077610       84.5671524203
C                47.0438995947       32.2679712925       83.6708881822
O                47.4820508649       33.3385976516       84.0757180839
C                45.5638680044       30.5433986947       84.7549619517
H                47.7468775871       32.3762714262       86.0186277380
H                47.5944811580       30.2198393026       84.1188279878
H                45.1698054836       30.1068217439       83.8413830294
H                45.5470122410       29.7670139161       85.5175017125
H                44.9105087840       31.3544035141       85.0650356083
N                44.4644003289       34.5693276899       81.1911707759
C                43.0705826539       34.8066563550       80.8989249891
C                42.9067563207       36.0677298236       80.0609649026
O                43.6877875217       37.0060865736       80.1093699637
C                42.2470994025       34.9700845723       82.1835067600
C                42.2552228573       33.7367611932       83.0904915393
C                41.5676305501       34.1024013425       84.4032258144
C                41.5627768918       32.5343120803       82.4524935630
H                45.0073017773       35.3188674090       81.6005843789
H                42.7161438244       33.9303223140       80.3503754339
H                42.6503363082       35.8200631590       82.7383800361
H                41.2153633764       35.2102291975       81.9184548493
H                43.2943421885       33.4677254685       83.3146982396
H                41.6128773061       33.2671805935       85.0981226409
H                42.0481457035       34.9632372065       84.8638872629
H                40.5194008263       34.3409225609       84.2310173060
H                41.5323846799       31.7168136786       83.1688062939
H                40.5425421038       32.7919400787       82.1749374136
H                42.1067904251       32.1857551981       81.5807785388
O                42.1926893776       27.8434117302       90.3660145645
H                43.0447445494       27.7048172660       90.8241875309
H                41.6422604347       28.2661479828       91.0306200901
H                39.4512681945       37.4778805810       89.0479623619
H                35.3117754754       25.7605547222       86.2893137795
H                35.9880384094       26.1659094275       88.8795774264
H                34.7868430106       32.8664013857       90.4948266606
H                46.3961404314       34.0880639327       90.5698712875
H                45.4393940276       34.1230167366       94.3266190334
H                48.5436446877       29.0793176733       93.0238531900
H                48.8661542927       30.2757556890       89.2245597498
H                47.1299692996       31.0648698245       86.5079178279
H                46.7067338992       32.2149953897       82.7309345411
H                44.5372004963       33.8884418660       81.7752038489
H                42.1318934441       36.1548620734       79.4348694678
