 432 
 
N                54.6890771953       93.1206710897      100.2897998793
C                55.2218796383       92.6163859414      101.4163768303
C                55.5386893320       93.7263835706      102.4104544840
O                56.0739303183       94.7118232995      102.0117897905
C                56.4020281239       91.7253280239      101.1696781217
O                56.0303326936       90.4169298736      100.9781798519
H                54.9006721634       92.5481574318       99.4468638892
H                53.6621446601       93.2000365966      100.2681306643
H                55.0309764050       94.0485333283      100.0506461385
H                54.4569411776       91.9871299467      101.8605462954
H                56.9489065252       92.1231724278      100.3432468577
H                57.0865820076       91.8108576130      101.9837683292
H                56.8507232129       89.9068721109      100.7888742701
N                55.2398365038       93.4894291677      103.7307152280
C                55.6039301839       94.2873570372      104.7982580460
C                56.3528672059       93.4990181267      105.8657695770
O                55.9732058154       92.3929110116      106.1588134312
C                54.3987096223       95.0425985209      105.4656953579
C                53.3444648911       94.2142304168      105.6389836544
C                54.7878448347       95.7304679145      106.6676537154
H                54.7388873903       92.7144758180      103.9849210061
H                56.2690518161       95.0619970599      104.4270792001
H                54.1140236332       95.8016692051      104.7327035397
H                52.4913159117       94.6488387471      106.0836754040
H                52.9987464690       93.6869014874      104.7784735332
H                53.6091523874       93.3907031709      106.3440390777
H                53.9881797755       96.2985207556      107.1047319405
H                55.1586475148       95.0975587586      107.4069989780
H                55.5791641610       96.4916586575      106.5185767557
N                57.4725875145       94.0610469037      106.4634431489
C                58.2668272303       93.5073974132      107.3892235219
C                58.0843474802       94.1795348036      108.7391004433
O                57.1968968129       94.8973557494      108.9177802396
C                59.6655943859       93.3856534097      106.9611694583
S                60.8415260186       94.7380288805      107.1424780183
H                57.9222902014       92.4591005976      107.5520766226
H                60.1581780894       92.5486737980      107.4690585703
H                59.7269282294       93.0128060036      105.9235375566
N                59.0310322285       93.8547119618      109.7039621609
C                58.8514324767       94.4201787144      111.0170952749
C                59.6376372756       95.7084419375      111.2477260716
O                59.3615560929       96.3309924583      112.2800530824
C                59.3250468760       93.3237278626      112.0255755476
H                59.7008405720       93.3846075536      109.5078277382
H                57.9773126228       94.5828737716      111.1332545889
H                59.2075794243       93.6697905844      112.9370679278
H                58.7527196815       92.5610306359      111.9909975468
H                60.2226721489       93.0567391465      111.8626144548
N                60.6454241544       96.0198258560      110.4151965095
C                61.3045230532       97.3465267804      110.4924681160
C                60.2572360047       98.4858119133      110.4777516317
O                59.2159630434       98.3351991961      109.7659323485
C                62.2409094711       97.4514931797      109.3003257973
H                60.8385215596       95.4987206189      109.7742914026
H                61.7915901999       97.3343591751      111.2722134481
H                62.7091231890       98.3046653218      109.3556640827
H                62.9390894073       96.7939168712      109.3503692328
H                61.7905293896       97.3647337932      108.4703557709
N                60.5607099919       99.5588854761      111.1576661120
C                59.6583060818      100.6519667799      111.3788204598
C                59.2220952126      101.3352846785      110.1632012401
O                58.1131020935      101.6442531752      109.9011380911
C                60.1130096417      101.5546658191      112.4785120151
C                60.0149487554      101.1354893775      113.8916101828
C                60.8760706418       99.9524903017      114.2182719759
O                61.6463936407       99.4336034052      113.4312296021
N                60.7371753714       99.4681157795      115.4483429897
H                61.4281716066       99.6776360719      111.5829352025
H                58.7518261303      100.1809630528      111.7877305173
H                61.1581917600      101.7823744616      112.2789464019
H                59.6507325549      102.5172967689      112.3390071057
H                60.2157762069      101.9358584094      114.5535219246
H                58.9846621336      100.9034220296      114.0854066902
H                60.1235804799       99.8564284439      116.1189896029
H                61.2444751820       98.6759120950      115.7644222405
N                60.2608388073      101.5962623048      109.2543429380
C                60.0859327582      102.0498105038      107.9479090851
C                60.3414130229      100.9602629708      106.9260949290
O                61.3666191511      100.8960362825      106.2496033853
C                60.7812310127      103.3129925927      107.6820466553
C                59.9916260593      104.5527645724      107.7993649300
O                59.0007197665      104.6119683283      108.4298316917
N                60.4504164305      105.6062619938      107.1256891853
H                61.1621696837      101.4569631499      109.4952397009
H                59.0287759150      102.3394813795      107.8342593523
H                61.6502693961      103.3575187190      108.3210493463
H                61.2524431491      103.2550082988      106.6970045921
H                59.9893300789      106.4869161652      107.1458040287
H                61.2827096268      105.5979623968      106.5923676556
N                59.3664902093       99.9970079245      106.8447278755
C                59.3569303236       98.9960328631      105.8611393990
C                59.0499059558       99.6831902895      104.5991480594
O                57.9948379603      100.2832898207      104.4747038278
C                58.4771193551       97.8391805433      106.0420065915
S                58.2007184479       96.6986269517      104.6045233040
H                58.6612245153       99.9098161489      107.5117182666
H                60.3520411876       98.5590179373      105.8205835331
H                58.7930350440       97.2646327776      106.9232194911
H                57.5170679111       98.2248179876      106.3801638065
N                59.9752974878       99.6389699639      103.5838105539
C                59.9438795145      100.2254941275      102.3507829590
C                59.0913962541       99.5308662177      101.3102777757
O                59.2986125373       99.6282010528      100.1523959805
C                61.3212431102      100.5146249754      101.9528657418
C                62.1764305100      100.8486787277      103.0461549444
C                63.6049892667      100.8164622011      102.7816694345
O                64.0324219718      100.3225466092      101.7887103481
N                64.4153083644      101.3345488569      103.7269498329
H                60.7453992771       99.0582344996      103.7060164327
H                59.4161395839      101.2012165387      102.4660365532
H                61.7104538078       99.6964078739      101.4114385068
H                61.3648259831      101.3227706850      101.2257908382
H                61.9108328295      101.8055757934      103.4737967197
H                61.9608947592      100.1775745156      103.8737765812
H                64.0779452702      101.7574243618      104.5511572351
H                65.4063188458      101.3298056112      103.6214813253
N                58.1118408164       98.7771839822      101.7633550826
C                57.2342865609       97.9380516345      101.0942633596
C                57.7897279255       97.3617109917       99.8533699396
O                57.2481591659       97.6261602269       98.8022597046
C                55.9153578706       98.5794590695      100.9331827508
C                54.9015567250       98.5638797548      102.0399869960
C                53.5981479513       99.1311740532      101.7931624734
N                52.5176663977       98.5496245227      102.4469547461
C                51.6993513663       97.6305912664      101.9670603705
N                51.8262966520       97.2068780738      100.7534867941
N                50.7469434897       97.1246924721      102.7145260757
H                57.9632692099       98.7706655927      102.7601158981
H                57.0607722380       97.0531049641      101.7594703776
H                56.0996659083       99.6022650591      100.6715703379
H                55.4417819143       98.1884673956      100.0507269183
H                54.7675996541       97.5415190814      102.3458254347
H                55.3430148158       99.0188693630      102.9007751369
H                53.6175219771      100.1930507280      101.9903491575
H                53.4058911510       99.1008221758      100.7268486168
H                52.3513088980       98.8112644866      103.3763207611
H                52.5359391552       97.5658301476      100.1699354138
H                51.2470852528       96.5267129981      100.3507692809
H                50.5972704530       97.3981213222      103.6429966826
H                50.1252539480       96.4288027544      102.3663746987
N                58.8978308975       96.5553396154       99.8654731463
C                59.4339195716       95.9335290737       98.6798809291
C                58.3424532136       95.1768010011       97.9362296872
O                57.5902907175       94.4071592002       98.4978559440
C                60.4761573914       95.1010817072       99.1040232574
C                60.8628676648       95.5327243288      100.3978652795
C                59.6281914816       96.0209370624      100.9680626438
H                59.7642635026       96.7034316715       97.9819808280
H                60.2086467624       94.0665446006       99.1767883709
H                61.3490600308       95.0801532351       98.4691859089
H                61.3409854003       94.7986187590      100.9990685131
H                61.5960679695       96.3292756811      100.3477324495
H                59.0930793302       95.2507019996      101.5107523412
H                59.7814919412       96.7669503876      101.7611487115
N                61.7830784215       88.4784458805       97.1984269609
C                62.1742931603       89.2317985201       98.2805363492
C                63.1132849742       88.4916958788       99.1657274587
O                62.9526245713       87.2887793864       99.3962739443
C                60.9633841273       89.7761510141       99.0162990383
C                61.3543868841       90.7316760684       99.9732191357
C                59.9528663338       90.2241236097       98.1688972908
H                61.2388408164       87.7086939074       97.4385437262
H                62.6882735722       90.0987787285       97.8993970261
H                60.5649540507       88.9711651292       99.5935992302
H                60.5302838409       91.1445880490      100.5339468021
H                62.0720252038       90.4347058758      100.6704894584
H                61.7810255231       91.6190586746       99.4786322791
H                59.0683790113       90.5758739010       98.6544689764
H                60.2709808357       91.0433373773       97.5383638137
H                59.6069429537       89.4720016886       97.4737309998
N                64.7368742842       87.8225470981      103.0053968313
C                64.2990887055       88.2134792665      104.3437478377
C                65.4757907048       87.8097024383      105.2789401010
O                66.3330038130       86.7779293459      104.9316572602
C                63.1096718161       87.3297912739      104.6687969847
C                61.8100794364       87.8005726340      103.8798460379
C                61.4909232360       87.2661692040      102.6886100557
C                60.6453470361       88.5605908633      104.4165912463
N                60.1622400381       87.7654494261      102.3549491531
C                59.8201199440       88.4758265111      103.5188003092
C                60.4474652760       89.1042967024      105.6198978200
C                58.4972252226       89.0605008063      103.5751540462
C                59.1513636011       89.7191144679      105.7400971930
C                58.2238535615       89.6039153026      104.6967522299
H                64.9646317624       86.9609488439      102.7246838397
H                64.2325162732       88.9167876996      104.4021511246
H                63.2424781727       86.2783886733      104.6101574264
H                62.9168384437       87.4245313272      105.6377575064
H                62.0170415732       86.7497426422      102.2023766741
H                59.8518607640       87.5586004195      101.5781484526
H                60.9366323543       89.0911329955      106.1994501536
H                57.8377016466       89.0765221934      102.8383310569
H                58.9191869605       90.1568224169      106.4859500226
H                57.3581423309       90.1648391656      104.9289874449
N                62.6107286943       90.4247790579      109.1046467551
C                62.7611972667       91.7923357585      108.2689611492
C                63.1110762813       91.4946757948      106.8519698553
O                63.8082937657       90.4739238167      106.6085800969
C                63.8725071521       92.5569661577      108.9133506103
C                63.5921707028       92.7603694176      110.3568470070
C                64.2848458020       91.8669847705      111.2000543189
C                62.6878766919       93.6320740433      110.9440364199
C                64.1031847731       91.9773795000      112.6306740119
C                62.4429889629       93.8292939171      112.2900176848
C                63.1865204086       92.9327085361      113.1566130162
H                63.2942032347       90.1252099738      109.1062396148
H                61.8541965570       92.3360358897      108.3101629119
H                64.6878084213       92.1922016045      108.7509841002
H                63.7502103239       93.5074262071      108.5471097713
H                64.8022746101       91.2959710527      110.9240965000
H                62.2713005361       94.1931397965      110.3243246077
H                64.5390743877       91.4902726322      113.1927593556
H                61.9673202350       94.3745500168      112.5697173873
H                63.0180810628       93.0531366369      114.0112474129
N                62.7260047755       92.1426645425      106.0598066980
C                63.3541948413       92.3192966417      104.6104444738
C                64.7283815616       92.8595685068      104.7013662291
O                64.9649748446       93.7893453408      105.4426148280
C                62.5826473679       93.2723780435      103.6134223498
C                61.0431003235       93.0031481895      103.4571286793
N                60.0295571012       93.8803382919      103.9225750379
C                60.4216072751       92.0630659054      102.7853397725
C                59.1380862238       93.5348229834      103.6442056918
N                59.2331681306       92.2700997893      102.8374559405
H                61.9662443714       92.9662319970      106.0304957903
H                63.1045041832       91.5362374597      104.2722693372
H                62.6888580125       94.1771969500      103.8917568055
H                63.0121821423       93.2743964749      102.7815913214
H                60.8776676999       91.3044111931      102.3228119662
H                58.0233796682       93.7477929830      103.7362626557
H                58.4162280596       91.8705469781      102.5469024639
N                66.7251061619       94.4241749085      102.5836539830
C                66.6926976560       95.8712237343      102.1649580507
C                66.2466685568       96.8102532184      103.2474979358
O                67.0319490812       97.6891400772      103.5365354176
C                65.7074898506       95.9978296300      100.9155760553
C                65.3265369549       97.3942485134      100.7016243191
C                66.3989356674       95.3814174190       99.5995257711
H                66.0679139738       93.8617881760      102.0887009245
H                67.4937153647       95.9593921264      101.7825936243
H                64.9515853174       95.4547011862      101.0622429320
H                64.6946123219       97.4428403603       99.9507125440
H                64.8089555800       97.7168929441      101.4176292607
H                66.0619882239       97.9494331405      100.6067042208
H                65.8199990792       95.5596586670       98.8839472824
H                67.1337018341       95.9171106824       99.4151556021
H                66.6308171020       94.5246478566       99.7313376460
N                65.1670859593       96.6284639058      103.8755579139
C                64.6834953792       97.5332513938      104.9445995914
C                65.6075675986       97.5271005175      106.1298475171
O                65.4597772010       98.4110803505      106.9534219594
C                63.2843328663       96.9627575937      105.4473610214
S                62.1891472593       96.8432928951      104.1978414925
H                64.5465292523       95.9559944002      103.6071297587
H                64.4580104407       98.2712205505      104.4924197644
H                63.4331627975       96.1473635703      105.8516700174
H                62.9886114821       97.5043727097      106.1592247179
Zn               60.0846006999       95.2962773546      104.7919177423
N                61.2430463650       84.7655980159       99.3604342650
C                59.7926740911       84.4478045622       99.0106304558
C                59.5163568654       84.9071401550       97.5844368748
O                60.0235222155       86.0515347265       97.2485416033
C                58.9455419082       85.2935770608       99.9806533287
O                59.2697415748       86.6578155979      100.0630165501
C                59.2328626380       84.6095783587      101.3027316679
H                61.4379633277       85.5921500331       99.4576429026
H                59.6422262389       83.7134134419       99.0366048176
H                57.9941923002       85.2294507943       99.7350181235
H                58.4625140834       87.0801058902      100.2100632623
H                58.4263233882       85.1896115167      102.0333826695
H                58.8609685557       83.7683071724      101.4062853186
H                60.0433158967       84.7694833942      101.6160492996
N                53.6701671583       93.4894291677      114.0892920962
C                53.3060734782       94.2873570372      113.0217492782
C                52.5571364562       93.4990181267      111.9542377472
O                52.9367978467       92.3929110116      111.6611938931
C                54.5112940398       95.0425985209      112.3543119663
C                55.5655387710       94.2142304168      112.1810236698
C                54.1221588274       95.7304679145      111.1523536088
H                54.1711162718       92.7144758180      113.8350863181
H                52.6409518460       95.0619970599      113.3929281241
H                54.7959800289       95.8016692051      113.0873037846
H                56.4186877504       94.6488387471      111.7363319202
H                55.9112571931       93.6869014874      113.0415337910
H                55.3008512747       93.3907031709      111.4759682465
H                54.9218238866       96.2985207556      110.7152753837
H                53.7513561473       95.0975587586      110.4130083463
H                53.3308395011       96.4916586575      111.3014305685
N                51.4374161476       94.0610469037      111.3565641753
C                50.6431764318       93.5073974132      110.4307838023
C                50.8256561819       94.1795348036      109.0809068810
O                51.7131068493       94.8973557494      108.9022270846
C                49.2444092762       93.3856534097      110.8588378659
S                48.0684776435       94.7380288805      110.6775293060
H                51.1487359671       94.9460506339      111.6586981085
H                50.9877134607       92.4591005976      110.2679307016
H                48.7518255727       92.5486737980      110.3509487539
H                49.1830754327       93.0128060036      111.8964697676
H                46.8896459569       94.5140888781      110.6919074158
N                49.8789714336       93.8547119618      108.1160451633
C                50.0585711855       94.4201787144      106.8029120494
C                49.2723663865       95.7084419375      106.5722812526
O                49.5484475692       96.3309924583      105.5399542418
C                49.5849567861       93.3237278626      105.7944317767
H                49.2091630901       93.3846075536      108.3121795860
H                50.9326910393       94.5828737716      106.6867527353
H                49.7024242378       93.6697905844      104.8829393964
H                50.1572839806       92.5610306359      105.8290097774
H                48.6873315132       93.0567391465      105.9573928695
N                60.5607099919      106.6623412122       99.5588854761
C                59.6583060818      106.4411868645      100.6519667799
C                59.2220952126      107.6568060841      101.3352846785
O                58.1131020935      107.9188692331      101.6442531752
C                60.1130096417      105.3414953091      101.5546658191
C                60.0149487554      103.9283971415      101.1354893775
C                60.8760706418      103.6017353484       99.9524903017
O                61.6463936407      104.3887777221       99.4336034052
N                60.7371753714      102.3716643345       99.4681157795
H                61.4281716066      106.2370721217       99.6776360719
H                58.7518261303      106.0322768069      100.1809630528
H                61.1581917600      105.5410609223      101.7823744616
H                59.6507325549      105.4810002185      102.5172967689
H                60.2157762069      103.2664853997      101.9358584094
H                58.9846621336      103.7346006340      100.9034220296
H                60.1235804799      101.7010177213       99.8564284439
H                61.2444751820      102.0555850838       98.6759120950
N                50.7981628457      101.7633550826       98.7771839822
C                51.6757171012      101.0942633596       97.9380516345
C                51.1202757366       99.8533699396       97.3617109917
O                51.6618444962       98.8022597046       97.6261602269
C                52.9946457916      100.9331827508       98.5794590695
C                54.0084469371      102.0399869960       98.5638797548
C                55.3118557109      101.7931624734       99.1311740532
N                56.3923372644      102.4469547461       98.5496245227
C                57.2106522958      101.9670603705       97.6305912664
N                57.0837070101      100.7534867941       97.2068780738
N                58.1630601724      102.7145260757       97.1246924721
H                50.9467344522      102.7601158981       98.7706655927
H                51.8492314241      101.7594703776       97.0531049641
H                52.8103377538      100.6715703379       99.6022650591
H                53.4682217478      100.0507269183       98.1884673956
H                54.1424040080      102.3458254347       97.5415190814
H                53.5669888463      102.9007751369       99.0188693630
H                55.2924816850      101.9903491575      100.1930507280
H                55.5041125111      100.7268486168       99.1008221758
H                56.5586947641      103.3763207611       98.8112644866
H                56.3740645069      100.1699354138       97.5658301476
H                57.6629184093      100.3507692809       96.5267129981
H                58.3127332091      103.6429966826       97.3981213222
H                58.7847497141      102.3663746987       96.4288027544
N                50.6986128440       96.6130004422       95.4576316066
C                51.7228535213       95.7509899074       95.0022374648
C                51.0865978092       94.4904462545       94.4962982195
O                51.1130103457       93.5340033233       95.1382185990
C                52.7989842371       95.4468274934       95.9451219992
S                53.8501578634       94.2767414832       95.3876668100
H                50.1003343264       96.1686672760       96.0626439450
H                52.2382481486       96.2720539063       94.1932509965
H                53.3499606258       96.3554563219       96.2039855603
H                52.3606627062       95.1906907834       96.8889377840
H                54.9477704581       94.1805957988       95.8630641168
N                47.4257165012       88.1261637703      102.9655562633
C                48.2906361345       88.6772461431      103.9981355431
C                47.4489510637       88.8083013586      105.2661780018
O                46.2288768274       88.8331263655      105.2474115487
C                48.8884532859       90.0025684246      103.5522748361
C                50.1871105327       89.7176680903      102.8056204875
C                51.1821489251       90.8663344645      102.8352044257
O                52.3821916827       90.6211363137      103.0814985036
O                50.6853470277       92.0554144239      102.6098964850
H                46.9471634553       88.6722623299      102.5729635011
H                49.0238901345       88.0358537008      104.2171269183
H                48.2892511762       90.4891891193      103.0208571933
H                49.0641278383       90.5606566753      104.3295397656
H                50.6760203933       88.8934412521      103.1692135534
H                49.9671807974       89.5324106384      101.8618360679
N                67.1100895572      101.8654308284       96.3193701784
C                67.2284475481      101.1175562288       97.5229311194
C                66.7295750189       99.7391103415       97.3783476217
O                67.4217149082       98.7265453867       97.6311254201
C                66.7672838581      101.9095685704       98.7142779638
C                65.3595818203      102.2461032029       98.6411204892
C                67.5960082621      103.0905737346       98.9652499312
C                64.3245256106      101.3365255683       98.9623724587
H                66.4569267523      102.5593820683       96.3716460250
H                68.3146007283      100.9717280688       97.6866241865
H                66.8435674678      101.2359513151       99.5584709393
H                65.1762766053      103.1614029779       99.2192478226
H                65.1566270610      102.6158832284       97.6336646523
H                67.2905904686      103.6778713155       99.7976829779
H                68.6364607708      102.8777693551       99.1230257040
H                67.5781294583      103.7636231909       98.1197290103
H                63.3206528380      101.7222846467       98.8497919995
H                64.3667883003      100.4686266937       98.3720943448
H                64.3854755650      101.0215458138       99.9792285120
N                65.5067886652       99.5868854695       96.8098557085
C                64.8549488348       98.3314551266       96.5191885616
C                65.6569459110       97.4142522856       95.6026867129
O                65.8164065081       96.2454347741       95.7397194899
C                63.4636169168       98.4698364505       96.1830509180
C                62.5356248752       98.8511413106       97.2847525048
O                62.8169198429       98.7345074341       98.4458156938
N                61.3418009028       99.3575762840       96.9312455747
H                65.0088467963      100.3352170475       96.4807551992
H                64.8930860141       97.8053503355       97.4959434071
H                63.3898284029       99.1893492700       95.3765223422
H                63.1001042873       97.5719522443       95.7091084513
H                60.6734126399       99.6326122419       97.5945047167
H                61.0801177877       99.4789835268       95.9861006110
H                67.9004453723      102.2498629229       96.1255928570
H                66.1113168171       97.7882942631       94.7942068562
H                58.2266923341       95.3058594541       96.9513726750
H                61.2969641506       88.9877279986       96.6377803345
H                63.8871944806       88.9678985622       99.5832140815
H                64.0938655238       88.0230414516      102.4084531587
H                65.6193724564       88.2965104972      106.1405677436
H                62.3272033662       90.6116692191      109.9381246829
H                65.4609330212       92.4579068317      104.1517879746
H                67.5448275779       94.0854952609      102.4308374379
H                66.3059541692       96.8165446677      106.2156763137
H                61.4583333172       84.3683539517      100.1387970864
H                58.9722407687       84.3344651493       96.9712639700
H                54.1804502480       93.9640384663      114.6588157410
H                48.5840838851       95.9998826849      107.2366075950
H                60.2018910470      106.3335092827       98.8018395548
H                59.8903172491      108.3582900599      101.5830739875
H                49.9520133736      101.6065234015       98.5136789640
H                50.3159639506       99.8937414934       96.7688765388
H                51.0647941866       97.3139223784       95.8873055104
H                50.6394941612       94.4801609572       93.6018751984
H                47.9281666914       87.7292933741      102.3330709315
H                47.8959242881       88.8779137993      106.1580126528
