 234 
 
N               -13.4278162439       74.8096961039       11.8160223096
C               -13.8860969731       73.4687885403       12.1104674630
C               -14.4891745632       73.3193132310       13.5059141512
O               -15.3166654794       72.4389504108       13.6976909220
C               -12.8967250888       72.3281211229       11.7939772106
O               -13.6268133239       71.3952084205       11.0459723024
H               -12.4369187314       75.0337764335       11.8813362932
H               -14.7181550429       73.2646768059       11.4339509988
H               -12.0421581377       72.7296783014       11.2416989891
H               -12.5167524170       71.9001993602       12.7414807608
H               -13.2431847369       70.5261211467       11.1438722529
N               -14.0726554575       74.1709861418       14.4642627065
C               -14.8107940371       74.2820927777       15.6947266236
C               -16.3178625521       74.3558790815       15.4161703127
O               -17.0895583650       73.4248467740       15.6066210799
C               -14.4254885704       75.5166986676       16.5208193458
H               -13.3752738753       74.8663271383       14.2658059102
H               -14.6819948707       73.3791042970       16.3004662140
H               -15.2140125623       75.6994724492       17.2963133930
H               -13.4988742590       75.3608249533       17.0243158177
H               -14.3544235590       76.4140348854       15.9072253780
N               -16.7599434574       75.5591222789       15.0213408436
C               -18.1757682881       75.8247409690       15.2177723226
C               -18.9898684344       74.7383684405       14.5115713095
O               -19.9703789379       74.2359012251       15.0236903155
C               -18.5283272709       77.2240678367       14.6963066507
H               -16.1278718106       76.3369845542       14.8842852077
H               -18.4124224723       75.7497609136       16.2809167241
H               -19.5923974620       77.3830531446       14.8389492371
H               -17.9813154538       77.9612759983       15.2672539784
H               -18.2754430190       77.3012554374       13.6516288346
N               -18.5683334642       74.4631765082       13.2565870469
C               -19.2205471059       73.4911058476       12.4127523036
C               -19.6226470052       72.2499648579       13.2114088828
O               -20.7729549857       71.8198570720       13.2425721012
C               -18.2758553000       73.0480245702       11.2885939249
H               -17.6827484866       74.8352859545       12.9354963031
H               -20.1479903651       73.9242274244       12.0071163391
H               -18.7693452619       72.2538355943       10.7173906198
H               -18.0605134006       73.8777257741       10.6469387700
H               -17.3619853898       72.6564394316       11.7184863066
N               -18.5867779258       71.6202282814       13.7780881611
C               -18.7582636477       70.4230889661       14.5701689180
C               -19.8226425181       70.6393383729       15.6510253290
O               -20.8092378810       69.9243650272       15.6858840313
C               -17.4289642448       70.0443710566       15.2008433789
H               -17.6838446705       72.0598381019       13.8248703806
H               -19.1439280052       69.6170193919       13.9197159057
H               -17.5819119903       69.2238708896       15.8913384414
H               -16.7222723832       69.7659645177       14.4414586276
H               -17.0404727474       70.9063408971       15.7472830960
N               -19.5061223264       71.6023258263       16.5052568877
C               -20.2698878155       72.0899610238       17.6293981601
C               -21.6425596563       72.6203020185       17.2350752109
O               -22.3888261359       73.1523686287       18.0879854924
C               -19.4492080768       73.1916682113       18.3541785792
C               -19.9508904526       73.5945529900       19.7535815128
C               -19.2172609279       74.8751745762       20.3120562541
O               -18.5324975875       75.5354121518       19.5261375709
O               -19.4004401250       75.1222274303       21.5181550199
H               -18.7020410968       72.1808602271       16.2769015130
H               -20.4669488726       71.2672908127       18.3344733795
H               -18.4336699495       72.8285777717       18.4481896216
H               -19.4451294121       74.0703774813       17.7220169071
H               -21.0285690569       73.8107258178       19.7141527677
H               -19.8097574412       72.7649624925       20.4569207671
N               -22.0412341332       72.3326592836       15.9945135563
C               -23.3939550653       72.6445052698       15.5718944536
C               -24.0235816922       71.5545683218       14.7246417298
O               -25.2499272612       71.3710850434       14.7805327430
C               -23.4373770286       74.0285898481       14.8910812937
C               -24.7530118990       74.1763559444       14.1328097048
C               -23.2873964652       75.0837159891       15.9797375132
H               -21.3584001063       72.2349736513       15.2622777933
H               -23.9966063550       72.6999417124       16.4683206689
H               -22.5803897398       74.0797682916       14.2086354889
H               -24.8342377717       75.1683899810       13.7610555385
H               -24.7570865715       73.4721195094       13.2864968910
H               -25.5751211438       73.9257923113       14.7772888797
H               -23.3633633453       76.0540637658       15.5633327825
H               -24.0324054828       74.9385407849       16.7583566865
H               -22.2921349098       74.9906930558       16.4619284336
N               -23.2189714548       70.7663424687       13.9720263637
C               -23.7556015624       69.4522685463       13.7072698400
C               -23.8869318614       68.6940407918       15.0386515108
O               -24.5153806956       67.6501505845       15.0827379127
C               -23.0461626519       68.6626746927       12.5956014263
C               -24.0758116244       68.0444159069       11.6436199635
C               -23.5429913454       67.3421472593       10.3277888816
O               -22.6820463091       66.4434821265       10.4645782609
O               -24.0638201412       67.7068962849        9.2635690316
H               -22.2270594156       70.9469397966       13.8761515774
H               -24.7859715283       69.6066786342       13.3855318819
H               -22.3823852887       69.3413529306       12.0503482908
H               -22.4016599513       67.8792987866       13.0321457831
H               -24.6431303686       67.2958923162       12.1916957730
H               -24.7490132999       68.8307635318       11.3101944304
N               -23.4034334826       69.3082099408       16.1378381007
C               -23.6219162706       68.7204266340       17.4350691130
C               -25.0496133900       69.0458051074       17.8363616983
O               -25.8828767941       68.1797121170       18.1227137121
C               -22.7038763515       69.2457888331       18.5470386624
C               -21.6019575521       68.2448775433       18.8980870086
C               -22.1736314842       66.9629160132       19.5951268516
O               -21.7962003112       66.7818280498       20.7756617750
O               -22.9273177071       66.2419372306       18.9512727135
H               -22.5624043991       69.8906698668       16.0248434534
H               -23.5248050014       67.6275029989       17.3767788847
H               -22.2823372574       70.2117145055       18.2334633296
H               -23.2971406777       69.4329366764       19.4534262092
H               -21.0824340158       67.9606688027       17.9758450422
H               -20.8813115926       68.7056986322       19.5869593500
N               -25.3198478615       70.3507700387       17.8753780515
C               -26.5975360645       70.7769737062       18.3936362638
C               -27.6797653490       70.1094728280       17.5585556775
O               -28.5533683321       69.4260988773       18.0436959689
C               -26.7691845489       72.2967584607       18.3944867970
C               -27.4844323658       72.6864530089       19.6993007707
C               -27.3416577739       74.1844446165       19.9915583507
N               -27.6602954673       74.4710431988       21.3737034409
C               -28.7227753241       75.0804014898       21.8552556491
N               -29.7539941173       75.3929756004       21.0758631904
N               -28.7833952693       75.3386322925       23.1692110627
H               -24.5699258427       71.0208255759       17.7703781773
H               -26.6994139556       70.3789036368       19.4139567857
H               -25.7927402020       72.7725174934       18.3545268658
H               -27.3436413012       72.6095406648       17.5225710478
H               -28.5207408836       72.3847014660       19.6519960242
H               -27.0058462563       72.1415071983       20.5115004761
H               -26.2990652157       74.4673297243       19.8340158973
H               -27.9567362998       74.7709230785       19.3176475528
H               -26.9415168458       74.1922917284       22.0364020974
H               -29.7696100017       75.1572060938       20.1097459586
H               -30.5212303377       75.9739830052       21.4199167406
H               -27.9830138168       75.2384468694       23.7589876622
H               -29.5332631170       75.9391784139       23.5221931561
N               -27.6253775203       70.3089444916       16.2462316509
C               -28.7503577642       69.8513886012       15.4866342305
C               -28.7781758573       68.3435776287       15.2169360480
O               -29.6559717609       67.8558262028       14.5135776152
C               -28.8943463611       70.7414312707       14.2376385768
O               -28.5983458325       72.0437905627       14.7160308701
C               -30.2887558233       70.6527612356       13.6345705061
H               -26.8993825170       70.8766366676       15.7820817719
H               -29.6357489441       70.0330001366       16.1068018496
H               -28.1407187354       70.4311511267       13.4975466887
H               -28.7532935764       72.6756207779       14.0322698921
H               -30.3050064577       71.1240532076       12.6610016058
H               -30.5720311795       69.6055485066       13.5203315610
H               -31.0086368382       71.1434492798       14.2821126521
N               -27.8781208106       67.6188210492       15.8758997377
C               -27.8596745819       66.1738183313       15.9674227125
C               -28.5898127021       65.6416408498       17.2019325172
O               -28.8709755545       64.4640688323       17.2904278836
C               -26.3986303650       65.6855101182       15.9947944167
C               -26.1953185604       64.1627622977       15.9407226171
C               -26.3270499966       63.5811136551       14.5178558914
N               -25.4083186956       62.4804524847       14.2570143362
C               -24.2172062963       62.5717571100       13.6573343030
N               -23.6432152473       63.7378537704       13.4413045421
N               -23.5745843734       61.4501465211       13.3248284389
H               -27.1353424659       68.0743743616       16.4001909271
H               -28.3685233616       65.7738267086       15.0782065659
H               -25.8704970248       66.1466695581       15.1618785308
H               -25.9312294399       66.0933255196       16.8981660994
H               -25.1743444668       63.9619188284       16.2956766909
H               -26.9174917860       63.6806662942       16.6013253333
H               -27.3405595571       63.2116815504       14.3654293151
H               -26.1590051154       64.3770130152       13.7882165440
H               -25.7490243775       61.5625737416       14.4976918975
H               -24.0724574110       64.6076281257       13.7338231401
H               -22.8387537932       63.8382634362       12.8345718025
H               -24.0343782667       60.5526738866       13.3384495631
H               -22.7133246112       61.5180595119       12.8051855838
N               -28.8614095302       66.5102064271       18.1576085999
C               -29.7655949174       66.1057394857       19.2244032709
C               -31.2027995049       66.3844867136       18.7638524792
O               -32.1206186316       65.6256369632       19.0466772641
C               -29.3696034462       66.6036448973       20.6141595496
C               -27.8914712222       66.2869741257       20.9841949883
C               -27.3722662063       64.8761019356       20.6523407245
C               -26.0566240047       64.9900684107       19.9006955703
N               -25.5206649203       63.6797585570       19.4393862217
H               -28.5530549439       67.4819146801       18.1341123023
H               -29.7288499571       65.0177340411       19.2574990153
H               -29.4831211402       67.6930352646       20.6881736124
H               -30.0401162783       66.1588634066       21.3479394733
H               -27.2570885102       67.0138807929       20.4924536573
H               -27.7922629892       66.4710538857       22.0713751398
H               -27.2283424685       64.3098630680       21.5802727037
H               -28.0868515957       64.3322161026       20.0417315453
H               -26.1830083557       65.6319223930       19.0290414082
H               -25.2933444772       65.4590204104       20.5252424417
H               -24.5793281066       63.8586480076       19.0096770432
H               -25.3928685910       63.0332449107       20.2291880638
H               -26.1387794282       63.2441346428       18.7340601884
N               -32.1114732116       65.3423814331       16.2202505832
C               -32.4113417712       63.9858496532       15.8544621842
C               -32.6391608376       63.0951342399       17.0895209178
O               -33.7021087178       62.5174355922       17.1897384762
C               -31.3128556603       63.4100094469       14.9568239914
C               -31.6623577533       61.9826686010       14.5259879795
C               -32.8859318898       61.9538455331       13.6227221501
O               -34.0310130281       61.8162942258       14.0395045178
N               -32.6257174770       62.1540438395       12.3226109413
H               -31.1968526452       65.5078535111       16.5918895564
H               -33.3670872132       63.9909506169       15.3137804191
H               -31.1982158595       64.0474128638       14.0827258111
H               -30.3701789314       63.4043799341       15.5108324637
H               -30.8174964529       61.5287048909       14.0119188905
H               -31.8939619020       61.3734835957       15.4126923011
H               -31.6906743264       62.1336089048       11.9671623043
H               -33.3893019830       62.0807554774       11.6567231161
N               -31.6794109030       62.9829804350       18.0165870455
C               -31.8437657202       62.0721641604       19.1558235752
C               -33.1281192477       62.4018870629       19.9772980529
O               -33.5412919193       61.6191684170       20.8182959435
C               -30.5015822233       61.7933157794       19.9285152233
C               -30.2798747981       62.4678374269       21.2859593148
C               -29.2081359097       61.8460163543       22.1896260042
O               -28.9370760885       60.6590760862       22.2400590032
N               -28.5281093641       62.7312601049       22.9574496644
H               -30.7545633518       63.4100311065       17.8720880746
H               -32.1231211925       61.0928131373       18.7160746255
H               -30.4366715098       60.7153282953       20.1021688952
H               -29.6768544873       62.0523629883       19.2377736487
H               -30.0530468779       63.5304868999       21.1700431640
H               -31.1975913357       62.3701869627       21.8543036863
H               -28.8419254058       63.6690212423       23.1625486662
H               -27.9142055473       62.3415120215       23.6693835014
H               -13.6434395216       75.0215088500       10.9682947811
H               -31.4046938077       67.1998054289       18.2211793888
H               -32.1845675359       65.8719397301       15.4962165855
H               -33.6182569684       63.2585789353       19.8165372043
