 105 
 
N                25.5873118749       31.4613257495       93.0920056905
C                25.8726080378       32.8410451572       92.7529363961
C                25.9814265502       33.6819324188       94.0119838944
O                25.1756302142       33.5472896045       94.9227612750
C                24.7425879939       33.4877192733       91.9369488361
C                25.2735307362       34.7037112125       91.2114311974
C                24.1938294092       35.5471118937       90.4635605886
O                23.0051829304       35.2294489138       90.5723954147
O                24.6887441822       36.5076956386       89.8247123656
H                25.5306214796       31.2133207272       94.0817412056
H                26.7994878298       32.8689971084       92.1696342615
H                24.3540617515       32.7810128241       91.2055369899
H                23.9195682292       33.7742045578       92.5947432635
H                25.7436998701       35.4105089152       91.8997813045
H                26.0071022831       34.4031490148       90.4630136915
N                26.9714663694       34.5742712135       94.0378122901
C                27.2463376911       35.4950081863       95.1192440215
C                26.9354551159       36.9150809945       94.6594286056
O                27.1009587353       37.2198734158       93.4807075261
C                28.7466831905       35.3453824782       95.4631162942
O                29.0587263890       33.9963615911       95.7166632387
C                29.1409276786       36.2662500754       96.6022787429
H                27.5293314547       34.7136674824       93.2098959816
H                26.6152978648       35.2232389953       95.9672672528
H                29.3085497653       35.5970493843       94.5531836194
H                28.7425287774       33.7434416940       96.6020270321
H                30.1812385124       36.0886743555       96.8614808043
H                29.0121632940       37.3048104029       96.3137107624
H                28.5088943593       36.0542457229       97.4616595154
N                26.5327082610       37.7706291264       95.5945459849
C                26.1629292785       39.1363356269       95.2953286607
C                27.0374703518       40.1461980344       96.1332276183
O                26.5967343821       41.2767295552       96.3615803363
C                24.6642969019       39.3816897373       95.5338572178
C                23.8213730577       38.3610711936       94.8336258928
C                23.3755159869       38.5463339090       93.5334580594
C                23.5002721526       37.1674014175       95.4649346871
C                22.6581818513       37.5588568646       92.8790148537
C                22.7805483431       36.1786573922       94.8165093096
C                22.3635841467       36.3651520997       93.5146040269
O                28.1462952341       39.6928289203       96.5220066041
H                26.3959393103       37.4383539441       96.5406122569
H                26.3966298454       39.2989932526       94.2354228763
H                24.4682198171       39.3387398770       96.6086112087
H                24.4410559423       40.3900988031       95.1864505620
H                23.6088078063       39.4636525651       93.0078708227
H                23.8168711833       37.0057098313       96.4857581907
H                22.3484330151       37.7093548763       91.8538284066
H                22.5559780375       35.2588493691       95.3342450184
H                21.8309158567       35.5979972554       92.9728028961
N                24.5841784464       36.3245372830      101.3186228055
C                25.0314229331       36.9402755599      100.0906596348
C                25.5803796122       35.9250305170       99.0958349247
O                26.2327550942       36.2834064860       98.1260420373
C                26.0265182532       38.0859928080      100.3435475317
C                27.2740478870       37.6271221972      101.1029804739
C                28.4186813797       38.6390127114      101.0020953817
C                28.9809736814       38.7184296127       99.5704004407
N                28.9030874655       40.0833128826       98.9785917109
H                25.1767554118       35.6216594695      101.7488643065
H                24.1364179103       37.3805485804       99.6223668120
H                26.2842706856       38.4985311885       99.3662755611
H                25.5021737853       38.8520888229      100.9160047401
H                27.0019852555       37.4922561319      102.1479461267
H                27.6090791518       36.6667964770      100.7055220626
H                28.0388244052       39.6103650949      101.3200578068
H                29.2002037718       38.3467548414      101.7005665084
H                30.0210285178       38.3999340293       99.5473266979
H                28.4156818027       38.0488529608       98.9216277684
H                28.7306308807       40.0152182145       97.9002013033
H                28.0853603016       40.5847016385       99.3401711827
H                29.7441107290       40.6297761043       99.1814917974
N                25.2708509516       34.6321187256       99.2887799578
C                25.9934286308       33.6095477195       98.5436140521
C                25.0699600727       32.3720286213       98.3825919969
O                24.9626224891       31.5400741065       99.2852006723
C                27.3029780096       33.3461843528       99.3154550144
O                28.3756251460       33.0554994052       98.4641363798
H                24.9202692750       34.3410532966      100.1903765901
H                26.2261631735       34.0143160756       97.5562447653
H                27.5210836727       34.2541666383       99.8953465560
H                27.1291013747       32.5314690086      100.0276756430
H                29.1343512307       32.8114562966       99.0118374510
N                24.3547028575       32.3152841580       97.2505046343
C                23.5985417074       31.1221294282       96.8808285618
C                24.6132228429       30.0896131954       96.3908800040
O                25.5443760819       30.4321560799       95.6749910873
C                22.6522280808       31.3862718678       95.7272424209
C                21.4474013409       32.2472220505       96.0998015560
C                20.8463694700       32.8411317978       94.8239638226
C                20.4050524871       31.4129301915       96.8255369494
H                24.5894788581       32.9249936550       96.4707442727
H                23.0778303431       30.7635173865       97.7740598818
H                23.2272646568       31.8857340205       94.9434539111
H                22.3003059753       30.4319825466       95.3285866224
H                21.7895838153       33.0744016660       96.7270499126
H                20.0702695233       33.5566121459       95.0728823501
H                21.6048375051       33.3673273624       94.2472536086
H                20.4256088670       32.0552916702       94.1997689387
H                19.5239772789       32.0044723983       97.0548387819
H                20.1035675250       30.5817638353       96.1977194121
H                20.7961977918       31.0204059788       97.7620519662
H                24.7908179478       31.2253779306       92.7457022817
H                24.4795130194       36.9564904751      101.9508255509
H                24.5174802316       29.1299677826       96.6552926248
