 538 
 
N                14.2931932898       34.7879529688       79.7880333306
C                15.0808446811       33.9083161549       80.6723242130
C                16.4995359412       33.7800931124       80.0451048921
O                16.6520553056       33.3153575193       78.8795422720
C                14.4634807946       32.4888559279       80.7809461830
C                15.3778576829       31.6418445350       81.5276232079
C                13.0836498509       32.5317745602       81.4045564502
H                14.2011305092       34.5132175314       78.8312304334
H                15.1774245622       34.4166647752       81.6275266605
H                14.4041088085       32.1132037082       79.7670550128
H                14.9649204828       30.6594355756       81.7280238933
H                16.3693431823       31.5484578498       81.1273008367
H                15.5440374748       32.0803571100       82.5942105699
H                12.6748883977       31.5589963291       81.4300883043
H                13.1485674901       32.9268734403       82.4373057415
H                12.4316670619       33.2099448356       80.8439018042
N                25.1524783935       24.2318035067       84.3305373775
C                23.9171307546       24.0998040040       83.5843665981
C                24.1349509442       24.3798598247       82.0940697831
O                24.9190394779       25.2183467756       81.6197372488
C                22.9211552059       25.1324455928       84.1241108933
C                22.4654617597       24.8625598519       85.5469513663
C                22.0803041938       26.1576884633       86.2527930271
C                21.3038729482       23.8786345831       85.5298790908
H                25.3405208650       25.0279980320       84.9028674688
H                23.5513816773       23.0930345244       83.7234243542
H                23.4176514762       26.1132483974       84.0637061512
H                22.0541296980       25.1793700347       83.4478983071
H                23.2954525086       24.4105801109       86.0881486806
H                21.7149575126       25.9708295028       87.2451851391
H                22.9302470120       26.8267925544       86.3105848148
H                21.2883615856       26.6731279440       85.6821167561
H                20.9819975253       23.6552130378       86.5625522304
H                20.4365649800       24.3061954935       85.0122833319
H                21.5737539928       22.9524601551       85.0657815516
N                23.3229403151       23.7091759490       81.3303379461
C                23.1957754022       24.1221345248       79.8576641990
C                22.4150981082       25.4305376616       79.7317137359
O                21.9117418207       26.0087072543       80.6547304549
C                22.3997021652       22.9569008993       79.1498246076
C                21.5218012798       22.4577217731       80.3271504485
C                22.4016015798       22.6538905304       81.6926814876
H                24.2219410417       24.2211830004       79.4997551406
H                21.8578667393       23.2772365618       78.3483408758
H                23.1217878800       22.1526268975       78.9035368975
H                20.6523502666       23.0700089090       80.4125275254
H                21.2554731246       21.4078770127       80.2252012050
H                21.7513634350       22.9208159284       82.4654413239
H                22.9474076763       21.7349988231       81.8735980388
N                19.2792529850       27.5679537557       77.4305830063
C                17.9354231472       27.2251939063       76.9245016889
C                17.8036586200       27.4575321580       75.4200155796
O                18.4424221614       28.2806139134       74.7864504496
C                16.8520457232       28.0310081455       77.6229154124
C                16.5344025238       27.5372037351       79.0403710942
C                15.8607826320       28.6989814854       79.7924014138
C                15.6027441383       26.3403497973       79.0032430801
H                19.5230566594       28.5135068322       77.4382840391
H                17.8016728733       26.1463328160       77.1268111214
H                17.1949855275       29.0719125398       77.6506240471
H                15.9416642358       28.0184880530       77.0265530288
H                17.4544138443       27.2558519547       79.5421599659
H                15.6445721093       28.3967205120       80.8259213178
H                16.5269082435       29.5537900965       79.8398321478
H                14.9469604871       28.9954365376       79.3137340175
H                15.4198068507       25.9487146077       80.0030754568
H                14.6358696632       26.6287746478       78.5747801832
H                16.0125154062       25.5406374379       78.3988197468
N                 9.4450999467       33.9965685623       76.3842941867
C                 8.3091567141       33.2002050513       76.6990760907
C                 7.0777039544       34.0785107080       77.0875973634
O                 7.2084583338       35.0880916940       77.8054589081
C                 8.5164561081       32.3934330254       78.0527597216
C                 9.6981159664       31.4761303725       78.0107824321
C                10.9950351600       32.0053464826       77.9995425548
C                 9.5092813700       30.0963185534       77.9866526189
C                12.1103497231       31.1620627644       77.9877829844
C                10.6252738682       29.2721219421       77.9442887866
C                11.9152545787       29.7886177677       77.9552136960
H                 9.6325534915       34.7516336046       77.0253194574
H                 8.0645538268       32.5252857965       75.8818610229
H                 8.6634226800       33.1197656445       78.8323309927
H                 7.6231785983       31.8178567155       78.2313177523
H                11.1564709229       33.0713495420       78.0717178304
H                 8.5395109023       29.6891608749       77.9591906517
H                13.0948546349       31.5705052005       77.9662735237
H                10.4943282695       28.1938625107       77.9225766630
H                12.7793523149       29.1422215500       77.9182008374
N                 0.3641519461       32.5301298045       86.8484644208
C                 1.2173746837       31.3361482358       86.9206651034
C                 2.2094557643       31.5714823929       88.0839780444
O                 2.7243106186       32.6739718516       88.2403234508
C                 2.0221375962       31.1746398980       85.6122769195
C                 2.4783591770       29.7438620150       85.3747131910
C                 1.2791635555       28.8087012371       85.1464010810
C                 3.3936721910       29.7290844972       84.1360933093
H                 0.7954073558       33.3899422671       86.7333706757
H                 0.5940946327       30.4826788923       87.1213339539
H                 1.3818772853       31.5000412951       84.8047932480
H                 2.8820214868       31.8388645486       85.6595864683
H                 3.0375390957       29.3911081088       86.2584673637
H                 1.6223543681       27.8541796541       84.7591862445
H                 0.7603007109       28.6260178208       86.0895894980
H                 0.5858845932       29.2547641289       84.4548698839
H                 3.7828722219       28.6949528667       84.0070545605
H                 2.8682417535       30.0119088282       83.2793563764
H                 4.2565374529       30.3679759647       84.3136332768
N                 5.7360947372       31.1659390182       90.1674542836
C                 7.1538516036       31.0631102340       89.8808764310
C                 7.6233163941       29.5923849413       90.0112015557
O                 8.5390463324       29.1846435525       89.3382443802
C                 7.9783324289       31.8632034895       90.8185976443
C                 8.1370995422       33.2738908805       90.3789182803
S                 9.2860430465       33.4143845742       89.1402895818
C                10.7109855197       32.5552417460       89.7309032509
H                 5.4210606643       31.8610359215       90.8592946093
H                 7.3593116909       31.3702573477       88.8691494979
H                 7.4462704482       31.8722889835       91.8456789618
H                 8.9385467351       31.4139657115       91.0349047297
H                 7.1844584255       33.7216068078       90.0523329816
H                 8.4828328955       33.9201501760       91.2439496477
H                11.5875785941       32.8922586281       89.1350062149
H                10.8828489547       32.8583428785       90.7657300688
H                10.5937835451       31.5020487985       89.6334064752
N                 6.9930402167       28.8244382612       90.9047784063
C                 7.4219100808       27.4305981331       91.0003181989
C                 7.0344678300       26.7535685366       89.7341662245
O                 7.8538588216       26.0026795918       89.1196646643
C                 6.8043921797       26.6909270067       92.2315462158
O                 7.3699623294       27.1981840193       93.4652307046
C                 7.0900321450       25.2037463372       92.1597990063
H                 6.3216051966       29.1967375146       91.5592627461
H                 8.5117863061       27.4008478367       91.1073251460
H                 5.7224349002       26.8778526301       92.2251348797
H                 6.9653482324       28.0698070304       93.6387826913
H                 6.7091307536       24.7383100155       93.0747747642
H                 6.6268354540       24.7675219557       91.3002598967
H                 8.1661111059       25.0456469538       92.1258222603
N                 5.8012186293       26.9388086984       89.3281542398
C                 5.2955880679       26.3307416120       88.0937660262
C                 6.2732380657       26.6933237495       86.9581000223
O                 6.7007581058       25.8857228449       86.1716665351
C                 3.9004111654       26.8358815257       87.7784113445
C                 2.8271172272       26.1322104221       88.6163423350
C                 1.4503538291       26.8495763056       88.5620572664
O                 1.2855277888       28.0696817036       88.2452776166
N                 0.4140754607       26.1131887685       88.8834149505
H                 5.1931046517       27.6049179365       89.7887688472
H                 5.3160420707       25.2427973795       88.1744041570
H                 3.8583499658       27.9159823841       87.9613871641
H                 3.6792222648       26.6752113460       86.7232195079
H                 2.6903877132       25.1139880554       88.2893843982
H                 3.1228190494       26.1388379267       89.6653266259
H                 0.5116277168       25.1114750105       89.1184451822
H                -0.5092231457       26.5070680122       88.8898998422
N                 6.6168367519       28.0489135470       86.9374164441
C                 7.4563663326       28.4826274039       85.8635549115
C                 8.8029177302       27.7810098675       85.8676839985
O                 9.2878100023       27.2985813614       84.7950669806
C                 7.6468075755       29.9753897611       85.9479983466
C                 8.2717060555       30.5349558316       84.6854584668
C                 7.8555986994       30.1635278094       83.4311711077
C                 9.2778094919       31.4715623248       84.8161088404
C                 8.4660920133       30.6887446910       82.3519071090
C                 9.8582987913       32.0405790308       83.6269824817
C                 9.4941979537       31.6300415917       82.4511727615
H                 6.1834526683       28.6781262395       87.5466075390
H                 6.9853902653       28.1907435491       84.9085670781
H                 6.6480161064       30.4178063202       86.0723449554
H                 8.2474278546       30.2306941495       86.8125334106
H                 7.0490662190       29.4589536652       83.3017340612
H                 9.6441933869       31.7879505510       85.7780719707
H                 8.1419238101       30.3720928490       81.3125653887
H                10.6577295496       32.7746463274       83.7929550975
H                 9.9288502552       32.0605277899       81.5188438151
N                 9.4082852919       27.7465716936       87.0739411468
C                10.6996059965       27.0799918360       87.3037079285
C                10.5820560140       25.6532416494       86.6993799350
O                11.4384771474       25.2237324043       85.8968500538
C                11.0536922973       27.1213739516       88.7023622693
C                12.5912234626       27.0567088778       88.9668038946
C                12.8620991451       27.1986261170       90.4972668623
C                13.2522432050       25.7499841633       88.4592601377
H                 9.0013089638       28.1961966010       87.8678574587
H                11.4602424450       27.6044598719       86.6639060946
H                10.6928200675       28.0310422446       89.1525172445
H                10.5827290792       26.2759952437       89.2486488677
H                13.0450538687       27.8949744210       88.4607582364
H                13.9342332254       27.1922335020       90.6763505095
H                12.4436662820       28.1241732004       90.8603713741
H                12.4119530077       26.3720644653       91.0340065207
H                14.3086451040       25.7985916211       88.6798954411
H                12.7964222260       24.9025373927       88.9666423996
H                13.1078540372       25.6622861862       87.3995042484
N                 9.5260330691       24.9516070015       87.0747105065
C                 9.2975933889       23.6275773045       86.5754150212
C                 9.3703139725       23.5385852705       85.0394258136
O                10.0223063946       22.7015486041       84.4761336336
C                 7.9571368314       23.0903158017       87.0228471368
O                 7.7776085628       21.8370226070       86.3838536274
H                 8.8672092076       25.3464933013       87.7373132335
H                10.0977123657       22.9488486876       86.9379888810
H                 7.9453710766       22.9898296896       88.1179563776
H                 7.1651363266       23.7873854504       86.7180391888
H                 6.9490626273       21.4292597772       86.7175060775
N                 8.6120633237       24.4555947555       84.4275148245
C                 8.4921789647       24.4194694290       82.9698456238
C                 9.8915575195       24.6768614957       82.3327381892
O                10.2269955665       24.1210555041       81.3066996003
C                 7.4584717628       25.3741647520       82.4047790154
C                 6.1321636493       25.2583396914       83.1106863491
C                 7.3018011556       25.1017556902       80.9383604954
C                 5.1013060198       26.2744839103       82.6343223236
H                 8.0947582172       25.1412709569       84.9366475366
H                 8.2253795275       23.3927013212       82.6833997625
H                 7.8585856532       26.4099402991       82.5627934831
H                 5.7303212365       24.2561219028       82.9508062338
H                 6.2503649311       25.3976639749       84.1870122545
H                 6.7913711149       25.9456479433       80.4280875708
H                 8.2698584306       24.9878180501       80.4376716565
H                 6.7237578820       24.2141252695       80.7643800223
H                 4.2033013444       26.2412981915       83.2349306010
H                 5.5129240560       27.2923458774       82.6949947287
H                 4.8200059439       26.0992497324       81.5954722004
N                10.6778753351       25.5416275900       82.9648380539
C                12.0075839304       25.7944642308       82.4819301448
C                12.8939047671       24.5506664876       82.7038345609
O                13.5354732015       24.0866833604       81.7392650875
C                12.5428806248       27.0549074511       83.1747905511
C                11.9357065213       28.2737168130       82.4355892062
C                14.0603025469       27.1260895312       83.1633772712
C                11.8775079257       29.4642835836       83.3532844196
H                10.3322911812       26.0518829432       83.7700196213
H                11.9701645137       25.9411403219       81.3899416282
H                12.1952099488       27.0316885899       84.2038327452
H                12.4925102027       28.4897335534       81.5546695495
H                10.8929125955       28.0430057162       82.1765507244
H                14.3970126209       28.0923130605       83.5132274951
H                14.4783517996       26.3561350495       83.7868825848
H                14.4274575762       26.9837730489       82.1424556832
H                11.5081985863       30.3426646687       82.8450887149
H                11.2593168992       29.2914756263       84.2230928881
H                12.9018845965       29.7241530370       83.7218243157
N                12.9485515365       24.0361349622       83.9019293431
C                13.6788414863       22.8275831745       84.1863702884
C                13.3314956642       21.7067230543       83.2058394394
O                14.1907398995       20.9863842689       82.7350174327
C                13.3893784835       22.3480751250       85.5545555099
C                14.3194811943       21.2051551221       85.9621275137
C                14.2759862288       20.8192065522       87.4983986491
N                14.7298308195       21.9267900089       88.2760136332
C                14.9353209142       21.8795207891       89.5665482231
N                14.7391306634       20.8206968010       90.2061982162
N                15.2917223180       23.0523713010       90.1582940140
H                12.3062714819       24.4004218006       84.6213888628
H                14.7403701306       23.0255127246       84.0558658931
H                13.4950470374       23.1962879697       86.2688407699
H                12.3372838985       22.0148899040       85.6508286005
H                14.0657306597       20.3165202057       85.3965340563
H                15.3461152139       21.4559163741       85.7400964383
H                13.2261602797       20.5743042692       87.7474691429
H                14.9075692192       19.9704079631       87.6082780013
H                14.9287835237       22.8051422672       87.7655831764
H                14.6699173581       19.9042787594       89.7891512167
H                14.9850898667       20.7616233710       91.2429980166
H                15.2109075321       23.9321519540       89.6973616710
H                15.2359141701       23.0812181441       91.1956397329
N                12.0366495312       21.5875131287       82.8979270496
C                11.5171451104       20.5970200806       81.9747946612
C                12.3036263423       20.5752452660       80.6228485215
O                12.5536966805       19.5412015402       80.0298770287
C                10.0584557165       20.9556863230       81.6659343924
O                 9.6656456055       20.3875479569       80.4278530328
H                11.3441300998       22.1247748500       83.3963748630
H                11.5876357454       19.5880488431       82.3771230883
H                 9.4157458702       20.6311487459       82.4712350859
H                10.0008290245       22.0506163644       81.5482035339
H                 8.7485933507       20.5482215298       80.2662578014
N                12.5842242401       21.8004745483       80.1405927306
C                13.2268513466       21.9951484627       78.8889506557
C                14.7275315080       21.6906921619       78.9603704654
O                15.4360377928       21.7277300169       77.8910484744
C                13.0346305826       23.4145408765       78.3912357667
C                11.5954367404       23.7139486032       78.0374407979
C                11.4937383187       25.1630062073       77.6101632929
N                10.6768515557       25.3740879802       76.3788263648
C                10.9896613584       25.2616333733       75.1528470391
N                12.3983356212       25.0484884992       74.7214193718
N                10.1839287927       25.4369538730       74.1807190461
H                12.4537323076       22.5911595046       80.7552612391
H                12.8241179284       21.2687090513       78.1778472943
H                13.3822022347       24.0852043453       79.1981116311
H                13.7136964908       23.5480901425       77.5392847875
H                11.3011157845       23.0636658274       77.2139277389
H                10.9679699533       23.5339282240       78.8861504110
H                11.0617852752       25.7857617953       78.3835529927
H                12.4970287694       25.5856780484       77.3734538976
H                 9.6587317736       25.4131953753       76.5778748995
H                13.0706776945       24.9063519352       75.4237694139
H                12.5396288087       24.8516194561       73.8318584813
H                 9.1518762611       25.5063295093       74.4078086402
H                10.3702699461       25.2161307762       73.2165133505
N                15.2764790905       21.4337595870       80.1587458739
C                16.6562586902       21.0146185112       80.3428327070
C                16.7336516320       19.4753452176       80.6003475594
O                15.8060772718       18.7703961570       80.8299621282
C                17.2767501163       21.8027488657       81.4424178744
C                17.2348922808       23.2960040988       81.1824386066
S                18.2021005003       24.2313401870       82.4834461079
C                17.0792716952       25.5441492126       82.9094091856
H                14.6735605847       21.2488567364       80.9393336722
H                17.1599197774       21.2205740354       79.3777149066
H                16.7203935046       21.5913241426       82.3804018470
H                18.3136676273       21.4930531829       81.6061247838
H                17.6831824294       23.5303295048       80.2236122943
H                16.2189990325       23.6749053524       81.2301320478
H                17.4430933328       25.9869982828       83.8247470946
H                17.0930107820       26.2939469634       82.1115973565
H                16.0895275785       25.1320690793       83.0317609240
N                17.9899356390       18.9753674981       80.4769398209
C                18.1838810145       17.6002437115       80.0661354493
C                18.5002752844       16.7205709429       81.2480380141
O                19.6082849766       16.7306699905       81.7825110590
C                19.2575312236       17.5280043996       78.9557853666
C                20.6393843560       17.9888936343       79.4043444078
C                19.3247224975       16.1049619861       78.3989788054
H                18.7451578427       19.6121602358       80.2538285963
H                17.2304515265       17.2613761006       79.6378414399
H                18.9107113241       18.1988324479       78.1581220673
H                21.3014231512       18.0385137705       78.5448327867
H                20.6173307608       18.9675171105       79.8746864957
H                21.0566887970       17.2799319920       80.1264868335
H                20.0330859055       16.0745284601       77.5676453892
H                19.6713697122       15.4192166613       79.1618389116
H                18.3593121878       15.7819745540       78.0332410249
N                17.4893638309       15.9441765093       81.6631590057
C                17.5777686911       14.9132896032       82.7200522961
C                17.8980334277       15.5184738645       84.1225338680
O                18.4431430711       14.8437713667       85.0007283739
C                18.6033205103       13.7817724920       82.4135372313
C                18.1082137819       12.6086137658       81.5529894267
C                18.0183612393       12.9766786367       80.0581613841
C                19.0555252937       11.4232059562       81.7389638923
H                16.5963459068       16.0320927992       81.2222274359
H                16.5872197488       14.4584740247       82.8100935167
H                19.4680583573       14.2458366809       81.9307414698
H                18.8958785329       13.4001195752       83.3831858927
H                17.1073093084       12.3310828206       81.9047866117
H                17.6223539615       12.1418984804       79.5081447808
H                17.3618698124       13.8370964778       79.9148904258
H                19.0032804864       13.2196379825       79.6864839231
H                18.7171016700       10.5929878575       81.1275494324
H                20.0587180827       11.6940778455       81.4190254072
H                19.0822222320       11.1115233065       82.7713985087
N                17.5102178847       16.7914548788       84.3252683287
C                17.9653460852       17.5364544531       85.4732579928
C                16.8573201599       17.7738746592       86.5281603309
O                16.3986715832       18.8977341493       86.7494273280
C                18.5540356416       18.8993521839       85.0255434739
C                19.6713173452       18.8076747983       84.0171521925
C                21.0545402730       18.4225002390       84.5724889196
N                21.0867931419       17.1912537044       85.3925055392
C                21.2516158246       15.9913269411       85.0210842576
N                21.3330870943       15.5883062550       83.7168697046
N                21.4491533222       14.9812640247       85.9914661812
H                17.0171836441       17.2954615682       83.6035432891
H                18.7113040198       16.9188786932       85.9811480853
H                17.7296628249       19.4719337976       84.6152906828
H                18.8855910812       19.4062810088       85.9419054997
H                19.3934750560       18.0909900838       83.2402913566
H                19.7997806945       19.7719563804       83.5618580239
H                21.7382768990       18.2659566314       83.7332875692
H                21.4353143615       19.2005181716       85.2048571140
H                21.0549731676       17.3470231755       86.3985979303
H                20.8886238451       16.1793027288       83.0330263057
H                21.4353739008       14.6217759910       83.5026436732
H                21.4741955333       15.3159815692       86.9522117223
H                21.4905522594       14.0645909486       85.7431223979
N                16.4280155343       16.6727308901       87.2120002622
C                15.4533101507       16.8304778799       88.2440083124
C                15.9965604731       16.7780471190       89.6812141867
O                15.3895806101       17.3174519024       90.5964643381
C                14.3300861181       15.7968562163       88.0796927458
H                16.8835094145       15.8084733307       87.0525020987
H                15.0280576801       17.8402886433       88.1310378755
H                13.5931962592       15.9652837258       88.8886832647
H                13.8384886429       15.9446441581       87.1358401457
H                14.7167696434       14.8035199498       88.1714265433
N                18.7830032339       17.9489658026       90.9208052834
C                19.7547879567       19.0227203618       91.0866502732
C                18.9753606892       20.3253033620       90.7505471636
O                18.3104243715       20.4581739798       89.7028628422
C                20.9905741493       18.8774024603       90.1725443527
C                20.6164946585       18.6324454459       88.6941053203
C                20.3420133684       17.1227720526       88.3812187764
O                21.3426230577       16.3766964814       88.2785779471
O                19.1349581554       16.7473990768       88.1739822876
H                18.1965784511       18.0588347492       90.0840385974
H                20.0745237768       19.0013746971       92.1219002362
H                21.5657152465       19.7876778583       90.2446453317
H                21.5823000048       18.0343659793       90.5228234484
H                19.7385184133       19.2193939571       88.4192165227
H                21.4587145093       18.9291723770       88.0690614794
N                18.9913280881       21.2406623541       91.7300846818
C                18.3103634922       22.4987195794       91.5735415442
C                19.2131480049       23.5944057649       91.0220750705
O                20.4390211888       23.6057651810       91.0966158900
C                17.7527867640       23.0020002967       92.8956842549
H                19.6767342386       21.1531979008       92.4876361845
H                17.5236347430       22.2971954496       90.8530408020
H                17.1731974277       23.8857504150       92.7849257643
H                17.1173198271       22.2053198916       93.3622943256
H                18.5648459416       23.1827213424       93.6031696594
N                18.4956045390       24.5832920327       90.4498535362
C                19.0568329343       25.8363147676       90.2145196211
C                18.0233561523       26.8730274007       90.6365415999
O                16.8577544333       26.5308740801       90.6973556311
C                19.3853348918       25.9703364703       88.7248585529
C                18.1464369349       25.8615730304       87.8424768039
C                17.6884260614       24.6268583395       87.4368656520
C                17.4515810854       27.0078685833       87.4391272534
C                16.5665251207       24.5331517715       86.6273620153
C                16.3097802990       26.8916945633       86.6564792784
C                15.8841771176       25.6788443406       86.2500799744
H                17.4968777610       24.5739011335       90.5163731534
H                19.9832362092       26.0033978868       90.7678961599
H                19.8711182902       26.9522670269       88.5256667743
H                20.0817980074       25.1829849337       88.4561320321
H                18.2440243055       23.7302046941       87.7212406771
H                17.8139316878       27.9642792941       87.7918399154
H                16.2644220183       23.5539597239       86.2755595145
H                15.8034452793       27.7947230896       86.3696352391
H                15.0021320231       25.5778633187       85.6418804762
N                16.0835741070       30.6003555469       89.9973995397
C                15.5820706334       31.5179966656       88.9650554213
C                15.4812803939       32.8655614751       89.6891366261
O                14.7735268689       32.9687440538       90.6363532750
C                14.2779878484       30.9857970842       88.4835644351
C                13.7162374437       31.7337604640       87.2869288204
C                14.7156123735       31.8262841344       86.0804362005
C                12.4601839905       31.0224624689       86.7745050477
H                15.5045155295       30.5008432483       90.7995715438
H                16.3660033254       31.5708511552       88.1889430334
H                14.4322519748       29.9463644545       88.1852005881
H                13.5638827877       31.0410564752       89.2860431815
H                13.4446216242       32.7571102786       87.5645403879
H                14.1963432978       32.2546757377       85.2229620104
H                15.5548371679       32.4465194684       86.3310416266
H                15.0430146363       30.8319591945       85.8189674155
H                11.9801038263       31.5923497063       85.9769037515
H                12.7091768706       30.0418535905       86.3822255424
H                11.7340934808       30.8986375220       87.5793853177
N                 8.4791882454       32.0190190164       95.6741172472
C                 8.2101952457       30.9128826536       94.7843040815
C                 6.7197243041       30.5724593251       94.7585624510
O                 6.2967253458       29.7217569619       93.9683514200
C                 9.1251831437       29.6880501319       94.9996325664
C                10.5959551238       30.0233738373       94.7477214773
S                10.9380610054       30.5224546608       93.0202718051
C                12.7394393138       30.6984792029       92.9311384568
H                 8.9292061335       31.7841399809       96.5784008936
H                 8.4359770345       31.2943035396       93.7646360382
H                 9.0311478692       29.3859431742       96.0529657128
H                 8.8206921016       28.8970109776       94.3605167165
H                10.9494894771       30.8752807546       95.3567767383
H                11.2171743826       29.1630396257       94.9383836357
H                12.9435778358       31.2017642889       92.0134215418
H                13.0291638571       31.2581809887       93.7881423616
H                13.1463187045       29.6829162544       92.9350868670
N                19.0716218522       32.4148532147       85.3367874746
C                19.1130444133       31.2191338174       86.0969830166
C                20.5428462635       30.7704651946       86.3294341903
O                21.3719338509       30.8928941258       85.4807346706
C                18.2295910762       30.1592956276       85.5064345892
C                18.7018698260       29.6412219117       84.2272367726
C                18.4697141047       30.3675261000       83.0998075914
C                19.3817235086       28.4062233054       84.1125819700
C                18.8620560051       29.9156345942       81.8708871864
C                19.7784134539       27.9469355044       82.8866487811
C                19.4940777501       28.6939736475       81.7639308060
O                19.8003595431       28.1406770633       80.5257693329
H                19.6295319477       32.5361891723       84.5414113165
H                18.6936362204       31.4623053891       87.1261498340
H                18.1766504626       29.3094925959       86.2659428802
H                17.2278175766       30.5517071332       85.4293352016
H                17.9415186081       31.3199485872       83.1707167451
H                19.5709659927       27.8310612596       85.0062298513
H                18.6153221760       30.4908686812       80.9611899932
H                20.2857342946       27.0016705783       82.7617083842
H                19.3564805535       28.7145464741       79.8440772705
N                 3.4876344209       28.9922265263       76.1767226334
C                 3.6741200689       28.3522545308       77.4861560401
C                 2.7407903179       27.1385422163       77.6828137624
O                 2.0958012026       26.6159348908       76.7429009270
C                 3.3630611323       29.4491460528       78.4119997583
C                 4.0590210935       29.3635345891       79.7562257548
C                 1.8463425167       29.6492140377       78.4494729607
C                 5.5474298729       29.1031548799       79.5722801180
H                 2.8062600426       29.6852454631       76.1293292364
H                 4.7030402607       27.9655886035       77.4881334967
H                 3.8159467480       30.3458747807       77.9585628753
H                 3.9347920829       30.3483076903       80.2580907910
H                 3.6033531652       28.6474971216       80.4558476324
H                 1.4173094665       29.3057183877       79.3828901763
H                 1.6393353750       30.7353997056       78.3530763544
H                 1.3466547660       29.1564491480       77.6382466655
H                 6.0565167114       29.2731794699       80.5827289947
H                 5.7497486920       28.0813484817       79.3321929815
H                 5.9775011071       29.7860334151       78.8958279431
N                 2.6811077033       26.6611410221       78.8856085659
C                 1.5291624977       25.8545443934       79.2976222907
C                 0.7068029639       26.6610880478       80.3056041579
O                 1.0785981449       27.7360121541       80.7136936637
H                 3.0908822577       27.1789169328       79.6363824632
H                 0.9445169063       25.6072673147       78.4204954699
H                 1.8718300224       24.9118958482       79.7779339787
H                13.4515352577       34.8520394901       80.1002907160
H                17.3039777211       34.0670309871       80.5652395659
H                25.2293491767       23.5458732228       84.9081103411
H                22.2980165575       25.8586418368       78.8356006149
H                19.3586524628       27.2914852120       78.2833789181
H                17.1571704440       26.9137964913       74.8848477901
H                10.1816919769       33.4794876804       76.3765778135
H                 6.1654482908       33.8337947728       76.7591103541
H                -0.1987289566       32.4553657925       86.1501984029
H                 2.4320988486       30.8242514504       88.7101377490
H                 5.2917463222       31.3766953532       89.4137061471
H                16.8532976834       16.2999927340       89.8747738864
H                19.2140123876       17.1621785187       90.8487158986
H                18.3108736259       27.8056637627       90.8545395784
H                16.1759871417       29.7762724341       89.6476183879
H                16.0095559801       33.6493492490       89.3626375747
H                 9.0307209729       32.6034010330       95.2687664002
H                 6.0897389816       31.0378690918       95.3802635388
H                18.2379078263       32.5424504776       85.0227176394
H                20.8033343444       30.3644389581       87.2053843343
H                 4.2568096885       29.3835596568       75.9213253182
H                -0.1627259978       26.3009779072       80.6435983462
