327
Properties=species:S:1:pos:R:3 pbc="F F F"
N      15.07000000      20.27900000      -8.79100000 
C      15.95900000      21.47200000      -8.99400000 
C      17.39400000      21.05800000      -9.22100000 
O      18.25000000      21.24100000      -8.34400000 
H      14.79200000      20.19900000      -7.82900000 
H      14.23300000      20.35800000      -9.34500000 
H      15.51600000      19.41200000      -9.04600000 
H      15.59100000      22.00700000      -9.85200000 
H      15.88700000      22.08000000      -8.11700000 
N      17.66000000      20.52500000     -10.40800000 
C      19.00400000      20.23300000     -10.80700000 
C      19.51100000      18.85900000     -10.45200000 
O      18.87300000      18.04900000      -9.76900000 
H      16.97900000      20.53100000     -11.14300000 
H      19.06400000      20.34500000     -11.87900000 
H      19.68000000      20.94400000     -10.35600000 
N      20.72000000      18.58700000     -10.94300000 
C      21.47600000      17.40800000     -10.63000000 
C      22.14500000      17.53600000      -9.27700000 
O      22.28400000      18.63200000      -8.72000000 
C      22.58600000      17.20800000     -11.66500000 
C      22.13100000      16.65000000     -12.96600000 
C      21.07400000      15.84000000     -13.21500000 
C      22.82900000      16.82900000     -14.23000000 
N      21.04100000      15.50900000     -14.56500000 
C      22.11200000      16.10300000     -15.20300000 
C      24.00000000      17.49900000     -14.59800000 
C      22.53100000      16.04900000     -16.52800000 
C      24.42200000      17.43400000     -15.90700000 
C      23.68800000      16.71900000     -16.86600000 
H      21.18000000      19.28500000     -11.47800000 
H      20.82000000      16.55500000     -10.60400000 
H      23.06800000      18.16600000     -11.82300000 
H      23.34000000      16.56400000     -11.23900000 
H      20.34200000      15.45800000     -12.54800000 
H      20.35200000      14.94500000     -14.99500000 
H      24.57200000      18.03400000     -13.86700000 
H      21.97500000      15.49700000     -17.25900000 
H      25.32200000      17.93100000     -16.20500000 
H      24.04000000      16.68700000     -17.87800000 
N      22.63100000      16.39400000      -8.78300000 
C      23.40100000      16.33000000      -7.56600000 
C      24.74500000      15.73400000      -7.88000000 
O      24.83800000      14.69200000      -8.54800000 
C      22.67600000      15.50300000      -6.50200000 
C      23.53300000      15.37400000      -5.25200000 
C      21.34500000      16.15400000      -6.17100000 
H      22.48300000      15.54200000      -9.27000000 
H      23.52700000      17.33200000      -7.20300000 
H      22.49900000      14.52100000      -6.92300000 
H      22.99900000      14.81700000      -4.49500000 
H      24.46500000      14.86900000      -5.45400000 
H      23.75900000      16.35400000      -4.85700000 
H      20.80200000      15.54200000      -5.47000000 
H      21.51200000      17.12300000      -5.71400000 
H      20.73800000      16.28300000      -7.05100000 
N      25.79800000      16.38300000      -7.39800000 
C      27.14100000      15.96300000      -7.65600000 
C      27.64400000      14.97900000      -6.63200000 
O      27.40300000      15.12100000      -5.42000000 
C      28.01400000      17.20300000      -7.54900000 
O      29.38000000      16.77900000      -7.41300000 
H      25.64700000      17.17300000      -6.78200000 
H      27.21000000      15.52900000      -8.63700000 
H      27.88800000      17.80200000      -8.43400000 
H      27.72800000      17.77000000      -6.68100000 
H      30.00300000      17.38800000      -7.79200000 
N      29.30300000      16.69600000      -3.49800000 
C      28.48600000      17.18300000      -2.42600000 
C      27.79700000      16.05000000      -1.72400000 
O      27.53900000      16.15400000      -0.51000000 
C      27.51200000      18.24700000      -2.90100000 
C      26.43100000      17.70500000      -3.80700000 
C      25.66400000      18.81500000      -4.47700000 
O      25.41300000      19.84600000      -3.79100000 
O      25.31400000      18.64200000      -5.69500000 
H      28.97200000      16.75500000      -4.43500000 
H      29.13300000      17.61100000      -1.68500000 
H      27.06700000      18.70500000      -2.03400000 
H      28.08900000      19.00500000      -3.40800000 
H      26.83200000      17.05700000      -4.56200000 
H      25.72500000      17.11800000      -3.23400000 
N      27.50300000      14.96100000      -2.41500000 
C      26.96200000      13.79600000      -1.76900000 
C      27.99100000      13.19600000      -0.84700000 
O      27.66500000      12.81300000       0.29700000 
C      26.52100000      12.79700000      -2.83500000 
C      25.86000000      11.59200000      -2.24300000 
C      24.56400000      11.68300000      -1.74600000 
C      26.53500000      10.38500000      -2.15800000 
C      23.95600000      10.58800000      -1.16100000 
C      25.91800000       9.27900000      -1.59800000 
C      24.63300000       9.38200000      -1.08900000 
H      27.64200000      14.94200000      -3.40500000 
H      26.12600000      14.06900000      -1.15200000 
H      25.83300000      13.32100000      -3.47900000 
H      27.37600000      12.51100000      -3.42300000 
H      24.03600000      12.61300000      -1.82400000 
H      27.53100000      10.31000000      -2.54700000 
H      22.96800000      10.67200000      -0.76500000 
H      26.42900000       8.34100000      -1.57400000 
H      24.15700000       8.52500000      -0.65800000 
O      13.83900000      23.06000000      -6.62500000 
H      13.61300000      22.46400000      -5.89400000 
H      13.41200000      22.81000000      -7.43900000 
N      28.00100000      11.32400000     -10.94300000 
C      26.60100000      11.25900000     -10.63000000 
C      26.37700000      10.61600000      -9.27700000 
O      27.25700000       9.94700000      -8.72000000 
C      25.87400000      10.39700000     -11.66500000 
C      25.61800000      11.07100000     -12.96600000 
C      25.44400000      12.39200000     -13.21500000 
C      25.42300000      10.37600000     -14.23000000 
N      25.17400000      12.58500000     -14.56500000 
C      25.15300000      11.36100000     -15.20300000 
C      25.41800000       9.02700000     -14.59800000 
C      24.89700000      11.02500000     -16.52800000 
C      25.15100000       8.69500000     -15.90700000 
C      24.89800000       9.68800000     -16.86600000 
H      28.37500000      10.57700000     -11.47800000 
H      26.19000000      12.25400000     -10.60400000 
H      26.46200000       9.50100000     -11.82300000 
H      24.93800000      10.06600000     -11.23900000 
H      25.48000000      13.21600000     -12.54800000 
H      25.03000000      13.46300000     -14.99500000 
H      25.59600000       8.26400000     -13.86700000 
H      24.69700000      11.78200000     -17.25900000 
H      25.13100000       7.66600000     -16.20500000 
H      24.69500000       9.39900000     -17.87800000 
N      25.14600000      10.76500000      -8.78300000 
C      24.70500000      10.13100000      -7.56600000 
C      23.51700000       9.26500000      -7.88000000 
O      22.56800000       9.70600000      -8.54800000 
C      24.35200000      11.17200000      -6.50200000 
C      23.81100000      10.49400000      -5.25200000 
C      25.58100000      11.99900000      -6.17100000 
H      24.48200000      11.32000000      -9.27000000 
H      25.50900000       9.52000000      -7.20300000 
H      23.59000000      11.81600000      -6.92300000 
H      23.59600000      11.23500000      -4.49500000 
H      22.90800000       9.94000000      -5.45400000 
H      24.54800000       9.80900000      -4.85700000 
H      25.32200000      12.77500000      -5.47000000 
H      26.33600000      11.37000000      -5.71400000 
H      25.99600000      12.46000000      -7.05100000 
N      18.07000000       8.65000000     -10.94300000 
C      18.71300000       9.89500000     -10.63000000 
C      18.26800000      10.41000000      -9.27700000 
O      17.25000000       9.98300000      -8.72000000 
C      18.33100000      10.95600000     -11.66500000 
C      19.04200000      10.84100000     -12.96600000 
C      20.27300000      10.33000000     -13.21500000 
C      18.53800000      11.35600000     -14.23000000 
N      20.57500000      10.46800000     -14.56500000 
C      19.52600000      11.09800000     -15.20300000 
C      17.37200000      12.03600000     -14.59800000 
C      19.36300000      11.48800000     -16.52800000 
C      17.21800000      12.43300000     -15.90700000 
C      18.20400000      12.15500000     -16.86600000 
H      17.23600000       8.70000000     -11.47800000 
H      19.78000000       9.75300000     -10.60400000 
H      17.26000000      10.89400000     -11.82300000 
H      18.51200000      11.93100000     -11.23900000 
H      20.96900000       9.88700000     -12.54800000 
H      21.40800000      10.15300000     -14.99500000 
H      16.62300000      12.26300000     -13.86700000 
H      20.11800000      11.28200000     -17.25900000 
H      16.33700000      12.96400000     -16.20500000 
H      18.05600000      12.47600000     -17.87800000 
N      19.01400000      11.40200000      -8.78300000 
C      18.68500000      12.10100000      -7.56600000 
C      18.52900000      13.56300000      -7.88000000 
O      19.38500000      14.16400000      -8.54800000 
C      19.76300000      11.88700000      -6.50200000 
C      19.44600000      12.69300000      -5.25200000 
C      19.86400000      10.40800000      -6.17100000 
H      19.82600000      11.70000000      -9.27000000 
H      17.75400000      11.71000000      -7.20300000 
H      20.70200000      12.22400000      -6.92300000 
H      20.19600000      12.50900000      -4.49500000 
H      19.41800000      13.75300000      -5.45400000 
H      18.48400000      12.39800000      -4.85700000 
H      20.66600000      10.24400000      -5.47000000 
H      18.94200000      10.06900000      -5.71400000 
H      20.05600000       9.81800000      -7.05100000 
N      17.44000000      14.15000000      -7.39800000 
C      17.13200000      15.52400000      -7.65600000 
C      17.73300000      16.45100000      -6.63200000 
O      17.73000000      16.17100000      -5.42000000 
C      15.62200000      15.65900000      -7.54900000 
O      15.30600000      17.05400000      -7.41300000 
H      16.83100000      13.62500000      -6.78200000 
H      17.47400000      15.80000000      -8.63700000 
H      15.16600000      15.25000000      -8.43400000 
H      15.27400000      15.12800000      -6.68100000 
H      14.46700000      17.28900000      -7.79200000 
N      18.15000000      17.62900000      -7.06500000 
C      18.62300000      18.61500000      -6.13900000 
C      17.60200000      18.95400000      -5.09500000 
O      17.97500000      19.34700000      -3.97500000 
H      18.18600000      17.82700000      -8.04300000 
H      19.50100000      18.27600000      -5.62200000 
H      18.85700000      19.51100000      -6.68800000 
N      16.31400000      18.85800000      -5.40200000 
C      15.29900000      19.24000000      -4.44800000 
C      15.36000000      18.33600000      -3.24700000 
O      15.31800000      18.77900000      -2.08800000 
C      13.93100000      19.13800000      -5.11300000 
C      12.77900000      19.41500000      -4.16800000 
C      12.72600000      20.84200000      -3.70200000 
O      13.20800000      21.72500000      -4.50300000 
O      12.20100000      21.10200000      -2.59200000 
H      16.03400000      18.42700000      -6.26200000 
H      15.47800000      20.24000000      -4.09900000 
H      13.90400000      19.85300000      -5.91600000 
H      13.82800000      18.14900000      -5.53300000 
H      11.85200000      19.21700000      -4.68600000 
H      12.80400000      18.77100000      -3.30200000 
N      17.81900000      16.33700000      -2.41500000 
C      19.09800000      16.45200000      -1.76900000 
C      19.10300000      17.64300000      -0.84700000 
O      19.59800000      17.55300000       0.29700000 
C      20.18400000      16.57000000      -2.83500000 
C      21.55800000      16.59900000      -2.24300000 
C      22.12700000      15.43200000      -1.74600000 
C      22.26600000      17.78800000      -2.15800000 
C      23.38000000      15.45300000      -1.16100000 
C      23.53200000      17.80600000      -1.59800000 
C      24.08600000      16.64200000      -1.08900000 
H      17.76600000      16.46700000      -3.40500000 
H      19.28000000      15.59100000      -1.15200000 
H      20.07400000      15.71100000      -3.47900000 
H      20.00400000      17.45300000      -3.42300000 
H      21.58600000      14.50900000      -1.82400000 
H      21.83300000      18.68800000      -2.54700000 
H      23.80100000      14.55500000      -0.76500000 
H      24.08900000      18.71800000      -1.57400000 
H      25.06500000      16.65800000      -0.65800000 
N      30.85100000      18.35000000     -20.04300000 
C      30.42300000      17.62000000     -18.87600000 
C      31.52800000      16.73600000     -18.36700000 
O      31.75100000      16.62600000     -17.14400000 
C      29.21400000      16.76700000     -19.20000000 
C      27.94300000      17.57000000     -19.44400000 
C      26.78600000      16.58900000     -19.55500000 
C      27.69300000      18.55600000     -18.31400000 
H      30.35600000      18.24700000     -20.90500000 
H      30.20800000      18.30400000     -18.07100000 
H      29.43900000      16.15200000     -20.05500000 
H      29.03700000      16.11000000     -18.35700000 
H      28.04100000      18.10900000     -20.37400000 
H      25.86000000      17.10000000     -19.78300000 
H      26.97500000      15.84900000     -20.32200000 
H      26.66000000      16.07200000     -18.60900000 
H      26.69700000      18.97500000     -18.39100000 
H      27.77400000      18.05700000     -17.35600000 
H      28.40100000      19.37300000     -18.33000000 
N      31.31000000      15.19300000     -14.60100000 
C      30.12700000      14.40900000     -14.83000000 
C      30.43400000      13.30100000     -15.82100000 
O      31.62500000      12.99500000     -16.05900000 
C      29.00900000      15.28800000     -15.37000000 
C      28.68400000      16.46100000     -14.51600000 
C      29.17800000      17.71700000     -14.64000000 
C      27.76300000      16.47900000     -13.40200000 
N      28.61600000      18.53700000     -13.67400000 
C      27.75100000      17.79500000     -12.89700000 
C      26.97200000      15.50200000     -12.79800000 
C      26.97600000      18.14600000     -11.79700000 
C      26.19300000      15.85100000     -11.71400000 
C      26.20100000      17.16300000     -11.21900000 
O      29.42700000      12.75300000     -16.38300000 
H      31.53800000      15.87400000     -15.29400000 
H      29.82800000      13.95800000     -13.89700000 
H      29.30900000      15.63500000     -16.34800000 
H      28.14000000      14.66400000     -15.50500000 
H      29.87800000      18.09400000     -15.34900000 
H      28.82700000      19.49600000     -13.54900000 
H      26.98900000      14.50100000     -13.17200000 
H      26.98000000      19.14600000     -11.41100000 
H      25.58300000      15.11800000     -11.22700000 
H      25.59000000      17.40200000     -10.37100000 
N      13.26500000      20.76700000     -14.58300000 
C      14.27000000      21.22300000     -13.66600000 
C      15.57100000      20.48600000     -13.72200000 
O      16.47400000      20.83000000     -12.92500000 
H      13.24700000      21.15900000     -15.50300000 
H      14.48700000      22.26100000     -13.86200000 
H      13.90000000      21.13600000     -12.65600000 
N      15.71500000      19.51900000     -14.60100000 
C      16.98600000      18.88600000     -14.83000000 
C      17.79100000      19.70600000     -15.82100000 
O      17.46000000      20.89100000     -16.05900000 
C      16.78300000      17.47800000     -15.37000000 
C      15.92900000      16.61100000     -14.51600000 
C      14.59500000      16.41100000     -14.64000000 
C      16.37400000      15.80400000     -13.40200000 
N      14.16600000      15.51400000     -13.67400000 
C      15.24000000      15.13500000     -12.89700000 
C      17.61500000      15.60800000     -12.79800000 
C      15.32400000      14.28900000     -11.79700000 
C      17.70300000      14.75800000     -11.71400000 
C      16.56300000      14.10900000     -11.21900000 
O      18.76900000      19.10800000     -16.38300000 
H      15.01100000      19.37500000     -15.29400000 
H      17.52400000      18.85300000     -13.89700000 
H      16.33200000      17.56500000     -16.34800000 
H      17.75700000      17.03800000     -15.50500000 
H      13.91800000      16.82800000     -15.34900000 
H      13.22900000      15.21700000     -13.54900000 
H      18.47500000      16.12200000     -13.17200000 
H      14.45600000      13.79200000     -11.41100000 
H      18.64300000      14.59700000     -11.22700000 
H      16.66100000      13.46000000     -10.37100000 
H      28.18522428      14.18935037      -6.92101511 
H      30.08187520      17.14676534      -3.51080727 
H      28.93958640      13.10277289      -1.14947734 
H      28.16847783      12.07034919     -11.41725106 
H      23.48469205       8.32164179      -7.54980085 
H      18.63283824       8.13210373     -11.41733803 
H      15.43672596      17.34648705      -3.36938158 
H      17.48528777      15.51278093      -2.27607889 
H      18.70900203      18.51098122      -1.14928165 
H      30.81409940      19.23341490     -19.87502245 
H      32.09698638      16.22544770     -19.01166336 
H      31.22351866      15.64916106     -13.83000190 
H      13.35592919      19.88096747     -14.71214428 
