309
Properties=species:S:1:pos:R:3 pbc="F F F"
N      15.03800000      20.24000000      -8.65700000 
C      15.90000000      21.42000000      -9.01700000 
C      17.34100000      21.01600000      -9.23900000 
O      18.16500000      21.12600000      -8.31800000 
H      14.48700000      20.44100000      -7.84100000 
H      14.41000000      20.00900000      -9.40800000 
H      15.57600000      19.40900000      -8.45300000 
H      15.47900000      21.87200000      -9.89400000 
H      15.87300000      22.10100000      -8.19200000 
N      17.64600000      20.56700000     -10.44600000 
C      18.99200000      20.26700000     -10.82200000 
C      19.45900000      18.88600000     -10.44900000 
O      18.71900000      18.05100000      -9.90500000 
H      16.97800000      20.58300000     -11.19300000 
H      19.06500000      20.35900000     -11.89400000 
H      19.67000000      20.97800000     -10.37700000 
N      20.72200000      18.63200000     -10.79000000 
C      21.40300000      17.39200000     -10.54700000 
C      22.15400000      17.48300000      -9.23500000 
O      22.30200000      18.57400000      -8.67200000 
C      22.42100000      17.08900000     -11.65600000 
C      21.84600000      17.05100000     -13.03000000 
C      20.54300000      17.17800000     -13.38900000 
C      22.60700000      16.93300000     -14.27700000 
N      20.41300000      17.11800000     -14.77100000 
C      21.66900000      16.98400000     -15.32700000 
C      23.96600000      16.83400000     -14.58900000 
C      22.05100000      16.93200000     -16.66200000 
C      24.34800000      16.78400000     -15.91600000 
C      23.39900000      16.82900000     -16.94500000 
H      21.26100000      19.36200000     -11.18900000 
H      20.67100000      16.60200000     -10.48700000 
H      23.19900000      17.84400000     -11.61500000 
H      22.90000000      16.14900000     -11.42000000 
H      19.69400000      17.33900000     -12.77000000 
H      19.64400000      17.51100000     -15.28000000 
H      24.70400000      16.80300000     -13.81300000 
H      21.31500000      16.97100000     -17.44000000 
H      25.38800000      16.71300000     -16.16700000 
H      23.72000000      16.78500000     -17.96500000 
N      22.67800000      16.35000000      -8.76200000 
C      23.46300000      16.30100000      -7.55200000 
C      24.80200000      15.70900000      -7.87600000 
O      24.87800000      14.67500000      -8.56800000 
C      22.75600000      15.47300000      -6.47500000 
C      23.59300000      15.43500000      -5.20400000 
C      21.38700000      16.06300000      -6.17800000 
H      22.53300000      15.49200000      -9.23900000 
H      23.58300000      17.30800000      -7.19800000 
H      22.63800000      14.46900000      -6.86200000 
H      23.08300000      14.86100000      -4.44400000 
H      24.56500000      14.99600000      -5.36800000 
H      23.73400000      16.44000000      -4.82700000 
H      20.87500000      15.45100000      -5.45300000 
H      21.49600000      17.05700000      -5.76500000 
H      20.77800000      16.11800000      -7.06700000 
N      25.85900000      16.34800000      -7.40000000 
C      27.20500000      15.93200000      -7.64100000 
C      27.67900000      14.91700000      -6.62800000 
O      27.38100000      15.00500000      -5.41900000 
C      28.05400000      17.18300000      -7.46400000 
O      29.42400000      16.79300000      -7.27200000 
H      25.72000000      17.15700000      -6.81000000 
H      27.30700000      15.52900000      -8.63100000 
H      27.95700000      17.80500000      -8.33700000 
H      27.71500000      17.72000000      -6.59500000 
H      30.03800000      17.49700000      -7.46100000 
N      29.27800000      16.74100000      -3.49100000 
C      28.44800000      17.21900000      -2.41400000 
C      27.77700000      16.06800000      -1.71000000 
O      27.49900000      16.15900000      -0.50200000 
C      27.45600000      18.26500000      -2.88900000 
C      26.42300000      17.72100000      -3.85000000 
C      25.75200000      18.84200000      -4.60200000 
O      25.44300000      19.88100000      -3.96000000 
O      25.55100000      18.67200000      -5.85000000 
H      28.97300000      16.82400000      -4.43200000 
H      29.08600000      17.66200000      -1.67200000 
H      26.96900000      18.68700000      -2.02600000 
H      28.02900000      19.05300000      -3.35600000 
H      26.85300000      17.03900000      -4.55900000 
H      25.66500000      17.17300000      -3.30800000 
N      27.50800000      14.96800000      -2.40000000 
C      26.95900000      13.81300000      -1.75200000 
C      27.98100000      13.19800000      -0.84400000 
O      27.66900000      12.80000000       0.30400000 
C      26.49700000      12.82000000      -2.80600000 
C      25.88100000      11.60000000      -2.20600000 
C      24.56800000      11.63900000      -1.76300000 
C      26.61800000      10.43400000      -2.06400000 
C      23.98900000      10.52500000      -1.17400000 
C      26.02200000       9.30100000      -1.54400000 
C      24.71100000       9.34600000      -1.08800000 
H      27.64400000      14.94700000      -3.39100000 
H      26.13200000      14.09700000      -1.12700000 
H      25.78000000      13.33300000      -3.42700000 
H      27.33900000      12.55300000      -3.42700000 
H      24.00200000      12.54200000      -1.87700000 
H      27.63600000      10.40800000      -2.40000000 
H      22.98400000      10.57100000      -0.81100000 
H      26.57100000       8.38400000      -1.48900000 
H      24.25300000       8.47000000      -0.67700000 
O      13.71100000      23.36600000      -6.65500000 
H      14.63500000      23.14800000      -6.70100000 
H      13.26700000      22.76800000      -6.03000000 
O      18.55300000      18.00800000     -20.26800000 
H      19.01200000      17.20000000     -20.07200000 
H      18.84500000      18.74200000     -19.70600000 
O      19.26100000      19.92800000     -18.69200000 
H      19.16400000      19.62900000     -17.77000000 
H      20.00200000      20.51000000     -18.81700000 
N      28.03800000      11.30000000     -10.79000000 
C      26.62300000      11.33000000     -10.54700000 
C      26.32700000      10.63400000      -9.23500000 
O      27.19800000       9.96100000      -8.67200000 
C      25.85300000      10.59900000     -11.65600000 
C      26.10700000      11.11700000     -13.03000000 
C      26.86800000      12.18100000     -13.38900000 
C      25.62500000      10.51700000     -14.27700000 
N      26.88100000      12.32400000     -14.77100000 
C      26.13800000      11.30400000     -15.32700000 
C      24.85900000       9.38900000     -14.58900000 
C      25.90100000      10.99900000     -16.66200000 
C      24.62400000       9.08300000     -15.91600000 
C      25.13900000       9.88300000     -16.94500000 
H      28.40100000      10.46800000     -11.18900000 
H      26.30600000      12.35800000     -10.48700000 
H      26.11800000       9.54900000     -11.61500000 
H      24.79900000      10.65500000     -11.42000000 
H      27.43200000      12.83700000     -12.77000000 
H      27.60700000      12.79400000     -15.28000000 
H      24.46300000       8.76600000     -13.81300000 
H      26.30300000      11.61700000     -17.44000000 
H      24.04300000       8.21800000     -16.16700000 
H      24.94000000       9.62700000     -17.96500000 
N      25.08400000      10.74700000      -8.76200000 
C      24.64900000      10.09100000      -7.55200000 
C      23.46700000       9.22800000      -7.87600000 
O      22.53300000       9.67900000      -8.56800000 
C      24.28500000      11.11800000      -6.47500000 
C      23.83400000      10.41200000      -5.20400000 
C      25.48100000      12.00800000      -6.17800000 
H      24.41300000      11.30100000      -9.23900000 
H      25.46100000       9.48400000      -7.19800000 
H      23.47500000      11.72200000      -6.86200000 
H      23.59200000      11.14000000      -4.44400000 
H      22.96800000       9.78900000      -5.36800000 
H      24.63400000       9.78800000      -4.82700000 
H      25.20700000      12.75800000      -5.45300000 
H      26.28700000      11.41700000      -5.76500000 
H      25.83300000      12.50800000      -7.06700000 
N      19.02900000      11.46500000      -8.76200000 
C      18.67800000      12.16900000      -7.55200000 
C      18.52200000      13.62500000      -7.87600000 
O      19.37900000      14.20700000      -8.56800000 
C      19.74900000      11.97100000      -6.47500000 
C      19.36400000      12.71500000      -5.20400000 
C      19.92200000      10.49000000      -6.17800000 
H      19.84400000      11.76900000      -9.23900000 
H      17.74600000      11.77000000      -7.19800000 
H      20.67800000      12.37000000      -6.86200000 
H      20.11500000      12.56000000      -4.44400000 
H      19.25700000      13.77600000      -5.36800000 
H      18.42300000      12.33400000      -4.82700000 
H      20.70800000      10.35300000      -5.45300000 
H      19.00700000      10.08800000      -5.76500000 
H      20.17900000       9.93500000      -7.06700000 
N      17.43900000      14.22100000      -7.40000000 
C      17.12700000      15.59500000      -7.64100000 
C      17.76900000      16.51200000      -6.62800000 
O      17.84200000      16.21000000      -5.41900000 
C      15.61900000      15.70400000      -7.46400000 
O      15.27200000      17.08500000      -7.27200000 
H      16.80900000      13.69500000      -6.81000000 
H      17.42500000      15.88400000      -8.63100000 
H      15.12900000      15.30900000      -8.33700000 
H      15.32400000      15.14200000      -6.59500000 
H      14.35500000      17.26500000      -7.46100000 
N      18.12500000      17.71400000      -7.05500000 
C      18.60100000      18.69300000      -6.11900000 
C      17.58800000      19.02200000      -5.06000000 
O      17.96900000      19.46900000      -3.95900000 
H      18.10400000      17.93200000      -8.02900000 
H      19.48800000      18.35500000      -5.61600000 
H      18.81800000      19.59700000      -6.66400000 
N      16.30100000      18.86000000      -5.33400000 
C      15.29100000      19.23100000      -4.36700000 
C      15.34300000      18.28600000      -3.20700000 
O      15.30900000      18.68900000      -2.03200000 
C      13.91700000      19.15800000      -5.02900000 
C      12.76200000      19.43100000      -4.08300000 
C      12.52000000      20.90200000      -3.84600000 
O      12.68000000      21.67900000      -4.84400000 
O      12.13100000      21.25500000      -2.69500000 
H      16.01800000      18.39900000      -6.17500000 
H      15.49100000      20.21600000      -3.98500000 
H      13.88300000      19.88000000      -5.82500000 
H      13.81000000      18.17300000      -5.45300000 
H      11.85700000      19.03900000      -4.52900000 
H      12.88700000      18.93700000      -3.13300000 
N      17.81000000      16.33900000      -2.40000000 
C      19.08500000      16.44100000      -1.75200000 
C      19.10700000      17.63400000      -0.84400000 
O      19.60700000      17.56200000       0.30400000 
C      20.17600000      16.53700000      -2.80600000 
C      21.54000000      16.61300000      -2.20600000 
C      22.16400000      15.45700000      -1.76300000 
C      22.18200000      17.83500000      -2.06400000 
C      23.41700000      15.51200000      -1.17400000 
C      23.46100000      17.88500000      -1.54400000 
C      24.07800000      16.72700000      -1.08800000 
H      17.76000000      16.46600000      -3.39100000 
H      19.25200000      15.58200000      -1.12700000 
H      20.09000000      15.65900000      -3.42700000 
H      19.98600000      17.39900000      -3.42700000 
H      21.66400000      14.51500000      -1.87700000 
H      21.69600000      18.72900000      -2.40000000 
H      23.88000000      14.62000000      -0.81100000 
H      23.98000000      18.81900000      -1.48900000 
H      25.06500000      16.76900000      -0.67700000 
N      30.83800000      18.39500000     -19.99500000 
C      30.40800000      17.64600000     -18.83900000 
C      31.50300000      16.70700000     -18.37600000 
O      31.67200000      16.48200000     -17.15900000 
C      29.17300000      16.83400000     -19.16400000 
C      27.91300000      17.65900000     -19.37000000 
C      26.74500000      16.69300000     -19.50400000 
C      27.67700000      18.61900000     -18.21700000 
H      30.37000000      18.27400000     -20.87100000 
H      30.23000000      18.30700000     -18.01200000 
H      29.37300000      16.23900000     -20.04100000 
H      28.99900000      16.15200000     -18.34500000 
H      28.00800000      18.22200000     -20.28800000 
H      25.81600000      17.22200000     -19.67200000 
H      26.90400000      15.99900000     -20.32000000 
H      26.64300000      16.11800000     -18.59000000 
H      26.69100000      19.06300000     -18.29400000 
H      27.73600000      18.08900000     -17.27300000 
H      28.40400000      19.41700000     -18.20400000 
N      31.28400000      15.20800000     -14.63000000 
C      30.06600000      14.47300000     -14.83200000 
C      30.28800000      13.33100000     -15.80300000 
O      31.44500000      12.95200000     -16.07100000 
C      28.98300000      15.41200000     -15.36200000 
C      28.66800000      16.56800000     -14.48200000 
C      29.18300000      17.81900000     -14.59100000 
C      27.75600000      16.59400000     -13.35700000 
N      28.64500000      18.63600000     -13.61200000 
C      27.78900000      17.89600000     -12.82400000 
C      26.92500000      15.64000000     -12.77400000 
C      27.06600000      18.24100000     -11.68800000 
C      26.19500000      15.98000000     -11.65200000 
C      26.27700000      17.26800000     -11.10900000 
O      29.22500000      12.81100000     -16.29400000 
H      31.51700000      15.88600000     -15.32500000 
H      29.75800000      14.04700000     -13.89000000 
H      29.31900000      15.78200000     -16.31700000 
H      28.09400000      14.83200000     -15.53900000 
H      29.89000000      18.19400000     -15.29200000 
H      28.90600000      19.57800000     -13.45300000 
H      26.83700000      14.67100000     -13.20800000 
H      27.11400000      19.23100000     -11.27900000 
H      25.55000000      15.26200000     -11.19300000 
H      25.70300000      17.50600000     -10.23600000 
N      13.26200000      20.76900000     -14.58500000 
C      14.27700000      21.18800000     -13.66200000 
C      15.58000000      20.45600000     -13.75300000 
O      16.49800000      20.80900000     -12.98200000 
H      13.22500000      21.20300000     -15.48100000 
H      14.49300000      22.23200000     -13.82400000 
H      13.92000000      21.07000000     -12.65300000 
N      15.71400000      19.48900000     -14.63000000 
C      16.96000000      18.80100000     -14.83200000 
C      17.83800000      19.56400000     -15.80300000 
O      17.58700000      20.75600000     -16.07100000 
C      16.68800000      17.39400000     -15.36200000 
C      15.84500000      16.54300000     -14.48200000 
C      14.50400000      16.36300000     -14.59100000 
C      16.27800000      15.74100000     -13.35700000 
N      14.06500000      15.48900000     -13.61200000 
C      15.13400000      15.11800000     -12.82400000 
C      17.52000000      15.49700000     -12.77400000 
C      15.19700000      14.31900000     -11.68800000 
C      17.59000000      14.69500000     -11.65200000 
C      16.43400000      14.12300000     -11.10900000 
O      18.82000000      18.90400000     -16.29400000 
H      15.01100000      19.35100000     -15.32500000 
H      17.48300000      18.74800000     -13.89000000 
H      16.20000000      17.50000000     -16.31700000 
H      17.63600000      16.91400000     -15.53900000 
H      13.82500000      16.78900000     -15.29200000 
H      13.11900000      15.24400000     -13.45300000 
H      18.40300000      15.90600000     -13.20800000 
H      14.31500000      13.86600000     -11.27900000 
H      18.53500000      14.49600000     -11.19300000 
H      16.51500000      13.50700000     -10.23600000 
H      28.24791649      14.14793221      -6.91932245 
H      30.06481440      17.17782252      -3.48055065 
H      28.92778647      13.09998048      -1.15057389 
H      30.76184236      19.27599459     -19.82752298 
H      32.09682286      16.26219574     -19.04646520 
H      31.23691875      15.65979327     -13.85304041 
H      13.35826306      19.89130870     -14.75933133 
H      28.25930007      11.96173581     -11.35844700 
H      23.42621265       8.28811632      -7.53694976 
H      19.16868376      10.59596727      -8.57419542 
H      15.40689958      17.30095813      -3.36702923 
H      17.46622480      15.51922773      -2.25931585 
H      18.71935125      18.50319600      -1.15096378 
