 288 
 
N                52.1481384554       39.9181810994       85.5007061312
C                53.0038880876       40.2118563548       84.3673619813
C                52.1337859674       40.9316707214       83.3442426974
O                51.0526068625       40.4599090243       83.0168648181
C                53.5974706800       38.9719157120       83.6862223836
C                54.3437241854       38.0732205114       84.6587277965
C                55.3222673311       37.0743916428       83.9601860680
O                56.1215515564       36.4873640408       84.7174323527
O                55.2463060067       36.9550639120       82.7206651546
H                51.2798080325       39.4451352449       85.2975520463
H                53.8175450083       40.8379181947       84.7482900579
H                52.8001429513       38.4022692230       83.2028226421
H                54.2863630655       39.2884724972       82.8976486511
H                54.9455051433       38.6623885036       85.3544946597
H                53.6549854405       37.4703550518       85.2600703612
N                52.5796498845       42.1186082376       82.8800296939
C                51.8456457969       42.7395334511       81.7814110787
C                52.1742839046       41.9925849926       80.4810624329
O                53.2862724467       41.4957262751       80.3199377276
C                52.1504458181       44.2340425929       81.6236798769
C                51.0488685192       45.0850116566       82.2448758647
S                51.2627255621       46.8657511239       81.9783871842
C                52.7281736493       47.2471974905       82.9946584454
H                53.5707729298       42.3042628956       82.9390995390
H                50.7922372969       42.5847104611       82.0309667375
H                53.1111629873       44.4443315817       82.0982943258
H                52.2485274266       44.4725868203       80.5616381186
H                50.0824218361       44.8663467350       81.7895598026
H                50.9715296722       44.8993320001       83.3167345103
H                52.8805277990       48.3163500556       82.9086367402
H                52.5426078817       46.9680290692       84.0280479106
H                53.5919867714       46.7195913045       82.6048379512
N                51.1981686165       41.9235487552       79.5733268054
C                51.4007074068       41.2947440638       78.2830033564
C                51.9815096884       42.3214856565       77.2994821221
O                52.1143905346       43.4973339733       77.5857162956
C                49.9934664090       40.8676943968       77.8778844509
C                49.1482370388       42.0308922380       78.3969194034
C                49.8480490693       42.4509500664       79.6946262677
H                52.1185800698       40.4754180634       78.3898309339
H                49.9060661679       40.7408126714       76.8031935564
H                49.7199447167       39.9384533525       78.3761864860
H                49.1738651488       42.8529327549       77.6815821174
H                48.1155356847       41.7434215658       78.5781978893
H                49.8658578415       43.5364611030       79.8015204351
H                49.3635981576       42.0004394465       80.5645732863
N                52.2796824703       41.8050069341       76.0868607527
C                53.1353195278       42.5005550953       75.1314320140
C                52.4007152249       42.6239957630       73.7878706557
O                52.2767329287       41.6545894998       73.0374892356
C                54.4677384651       41.7558877635       74.9721248561
C                55.6270744392       42.6993044102       74.6818966833
C                55.5900646300       43.2818309639       73.2360866745
O                55.3762811878       44.5043760432       73.1168582169
O                55.7968591489       42.4750701359       72.3049478357
H                52.2391731078       40.8032786806       75.9690468641
H                53.3146951209       43.4985618183       75.5350825697
H                54.6829598528       41.2195689270       75.9019761556
H                54.3820851697       41.0375917835       74.1518029129
H                55.6295662395       43.5258985019       75.3898380712
H                56.5711317336       42.1610983654       74.7888877880
N                51.8350639323       43.7928316738       73.5098172036
C                51.6172419902       44.9614569675       74.3278637181
C                50.2383195770       45.5832455120       73.8727843463
O                49.7202954394       45.0740405783       72.8579289843
C                52.7014746014       46.0228715895       74.1517244619
O                49.7993397806       46.5141652518       74.5555513353
H                51.3162259775       43.8663878236       72.6310563310
H                51.5323645046       44.6849547248       75.3848956058
H                52.5373309664       46.8256410229       74.8643836565
H                53.6933345927       45.5976349745       74.2951409644
H                52.6609212462       46.4285101864       73.1427446073
N                46.4907008462       42.0888103790       68.9230282974
C                47.8919932635       42.5280728909       68.6548306980
C                48.8562995937       42.3568420462       69.8526010763
O                49.7839346599       43.1208723119       70.0307751911
C                47.7983583166       44.0080134698       68.2524162357
O                46.7374926190       44.0837617044       67.3235032664
H                45.9306519017       42.6203416454       68.2135409491
H                46.3442951072       41.0780741812       68.7953823915
H                46.1909120421       42.3795174106       69.8677176727
H                48.2847108021       41.9587473027       67.8063416694
H                47.6021872022       44.6224228434       69.1402146441
H                48.7505577081       44.3310389672       67.8263224395
H                46.6779443850       44.9725997511       66.9587192844
N                48.5659212689       41.2906114906       70.6105870776
C                49.0876876311       41.0275814559       71.9293562604
C                48.8430107130       39.5419923767       72.1690119611
O                48.0181406321       38.9438483900       71.4907194597
C                48.1979678362       41.8472361504       72.9495198953
O                47.8580121299       43.0893221478       72.4036907547
C                48.8374911672       41.9396417983       74.3316333666
H                47.8796902347       40.5835757922       70.3528788331
H                50.1378334699       41.3190657039       72.0176173080
H                47.2296502634       41.3279007840       73.0224487364
H                48.5695587417       43.7457853036       72.5336773713
H                48.2249127985       42.5695031621       74.9726483778
H                48.9388559751       40.9610697064       74.7922239067
H                49.8238943080       42.3936829052       74.2631751245
N                49.4448855498       38.9909914937       73.2306988248
C                49.0959495848       37.6355012931       73.6302437667
C                47.5740190909       37.4972548423       73.8311698804
O                47.0312363287       36.4138942016       73.7525587960
C                49.8335258450       37.2306086516       74.9017473372
H                50.2440470263       39.4431783690       73.6489151144
H                49.3558342203       36.9387107444       72.8228202448
H                49.5856443762       36.2021311423       75.1485249002
H                50.9079507834       37.2939888623       74.7460149424
H                49.5644548418       37.8685540607       75.7420147263
N                46.9253943872       38.6390761631       74.1360261166
C                45.4824486113       38.7429206276       74.2921177610
C                45.0269993856       38.1268214187       75.6288666589
O                43.8962929335       37.7148908557       75.8148480184
C                44.7319175493       38.1173836425       73.1095067948
C                43.3825689920       38.7927140960       72.8887981076
O                43.0877807962       39.8724591339       73.3726006582
N                42.5621862791       38.1030912116       72.0816374893
H                47.4582836554       39.4891544766       74.2198225202
H                45.2208027901       39.8072930729       74.3248761266
H                45.3416867794       38.2456699365       72.2123502081
H                44.5911465553       37.0512325545       73.2768686202
H                41.6530950349       38.4796292385       71.8662800493
H                42.8353863563       37.2239718763       71.6778929093
N                45.9971353870       38.1023649444       76.5524526195
C                45.9458443528       37.3831380166       77.8013007548
C                46.9214393568       38.0724150441       78.7526981005
O                48.0041655754       38.4738420337       78.3433663514
C                46.4301643007       35.9319637371       77.6154548530
C                45.5247568377       35.1385902806       76.6768733441
C                45.9783219905       33.6832121062       76.5561986857
C                45.1780077805       32.9130698719       75.5153106793
N                43.7554083704       32.7772509072       75.9408691288
H                46.9149515343       38.4703159844       76.3402504650
H                44.9258885533       37.4023022633       78.1916798093
H                47.4521145994       35.9557673922       77.2293849046
H                46.4531293445       35.4690273810       78.6045039690
H                44.5099633552       35.2154870020       77.0693128784
H                45.5619601989       35.5998865053       75.6891691718
H                47.0257054653       33.6710801498       76.2551902371
H                45.9106396798       33.1845172224       77.5237602275
H                45.2181103976       33.4392204929       74.5610382341
H                45.6035674093       31.9173230436       75.3919766795
H                43.2323155838       32.1863164252       75.2779882078
H                43.7133100172       32.3475945096       76.8778718455
H                43.3135001085       33.7073038879       75.9818294099
N                46.5025185503       38.1772063578       80.0162897978
C                47.3407400733       38.6588008754       81.0923793690
C                47.7509210942       37.4442313801       81.9334800394
O                46.9629583643       36.5163943760       82.0545685358
C                46.5337981063       39.6214677290       81.9856353235
C                46.0184957495       40.8303829496       81.2493106686
C                44.8709665953       40.7535798319       80.4672048797
C                46.6521376411       42.0618502220       81.3678148253
C                44.3736217712       41.8757317366       79.8298097657
C                46.1614720756       43.1963029652       80.7434789179
C                45.0076947995       43.1046676059       79.9741928969
O                44.4981158404       44.2435885083       79.3997636829
H                45.6186158314       37.7572787065       80.2878330514
H                48.2104791245       39.1543141224       80.6535157775
H                45.6871503494       39.0619206730       82.3918617533
H                47.1627169002       39.9302947534       82.8219908122
H                44.3485081763       39.8146861959       80.3753198963
H                47.5324098653       42.1491917652       81.9876095965
H                43.4750350462       41.8001038292       79.2347825315
H                46.6598949691       44.1459220046       80.8662768425
H                43.8307858191       43.9869791091       78.7444032954
N                46.5620632548       32.1032704502       82.4392717102
C                46.4329961331       33.1862681798       81.4883591100
C                44.9602531141       33.3313030505       81.1009214819
O                44.3325330544       32.3892593488       80.6466739539
C                47.1925682272       32.8721861912       80.1902973154
C                48.6762643179       32.9706983036       80.3699749094
C                49.2945927321       34.2108611873       80.2754584203
C                49.4434792566       31.8402046289       80.6227818150
C                50.6694797161       34.3119306021       80.3776518017
C                50.8163602597       31.9467095392       80.7533513688
C                51.4362020576       33.1778431596       80.6038622470
H                46.1937174998       31.2075390406       82.1507839125
H                46.8126013132       34.0954061137       81.9601918071
H                46.9018966116       31.8707374946       79.8700158330
H                46.8770989073       33.6101949677       79.4527434055
H                48.7044654599       35.0997750972       80.1105330785
H                48.9744682258       30.8718349938       80.7179681515
H                51.1554249216       35.2698499633       80.2586470158
H                51.4148154830       31.0755345724       80.9679956136
H                52.5144583200       33.2340119187       80.6067511673
N                44.4644003289       34.5693276899       81.1911707759
C                43.0705826539       34.8066563550       80.8989249891
C                42.9067563207       36.0677298236       80.0609649026
O                43.6877875217       37.0060865736       80.1093699637
C                42.2470994025       34.9700845723       82.1835067600
C                42.2552228573       33.7367611932       83.0904915393
C                41.5676305501       34.1024013425       84.4032258144
C                41.5627768918       32.5343120803       82.4524935630
H                45.0073017773       35.3188674090       81.6005843789
H                42.7161438244       33.9303223140       80.3503754339
H                42.6503363082       35.8200631590       82.7383800361
H                41.2153633764       35.2102291975       81.9184548493
H                43.2943421885       33.4677254685       83.3146982396
H                41.6128773061       33.2671805935       85.0981226409
H                42.0481457035       34.9632372065       84.8638872629
H                40.5194008263       34.3409225609       84.2310173060
H                41.5323846799       31.7168136786       83.1688062939
H                40.5425421038       32.7919400787       82.1749374136
H                42.1067904251       32.1857551981       81.5807785388
N                41.8598792010       36.0107133445       79.2129652896
C                41.4365978697       37.1940331813       78.4970775647
C                40.6533867896       38.1316673749       79.4115083899
O                40.1700466019       37.7478742798       80.4752724414
H                41.1360950852       35.3316912948       79.4113991734
H                42.3249887287       37.6984448148       78.1081610439
H                40.8024028213       36.8902223575       77.6618872940
N                40.5113004233       39.3904354360       78.9773689090
C                39.8484231465       40.3844577474       79.8080765641
C                38.4050467832       39.9823564862       80.1271741817
O                37.8625509689       40.3391335882       81.1655435087
C                39.9629847455       41.6926071612       79.0147192546
C                40.1517634346       41.2264339790       77.5709421064
C                40.9790693546       39.9509644651       77.7176530051
H                40.3471450374       40.4556527120       80.7829135613
H                39.0842160121       42.3198488421       79.1490861241
H                40.8340168287       42.2464769085       79.3623635655
H                39.1841347245       41.0080678811       77.1214601878
H                40.6510347718       41.9708771511       76.9576310897
H                40.8266238672       39.2587162453       76.8913458592
H                42.0472488869       40.1784912126       77.7869509910
N                59.1789175840       48.1634593845       72.4839026109
C                58.7258526947       46.9686419941       73.1946519929
C                59.1713177416       46.9921998361       74.6748008713
O                60.2245509579       46.5011682799       75.0399856002
C                59.3182479195       45.7467042155       72.4944520538
C                58.9648411335       44.4510120414       73.2150773826
O                58.3270477434       44.4057524844       74.2506021226
N                59.4661281366       43.3523546142       72.6156465154
H                59.8564087048       48.0138723655       71.7532659234
H                57.6292543484       46.9217742377       73.1751722483
H                58.9387180468       45.6922272557       71.4731336154
H                60.4074893151       45.8323256995       72.4870415326
H                59.1252425755       42.4550782610       72.9210435619
H                59.8764554669       43.4089901754       71.6990831989
N                58.3303170843       47.5960847572       75.5208709580
C                58.7782378922       47.8698075506       76.8591047616
C                58.4468907188       46.7778259695       77.8631429547
O                59.0927585781       46.7104073976       78.9080805237
C                58.2903111964       49.2322356548       77.3543806833
C                56.7790844805       49.2494400647       77.4536393575
O                56.0709801176       49.0739024353       76.4697694056
N                56.2668939088       49.4712444216       78.6737002715
H                57.5365464744       48.1233725268       75.1761312284
H                59.8796902362       47.8924134221       76.8281053908
H                58.7729805911       49.4516058525       78.3053672177
H                58.5860213081       49.9708785989       76.6087559261
H                55.2639759824       49.4633822847       78.7821973617
H                56.8419486695       49.5428989568       79.4970544382
N                57.4864397627       45.8877745517       77.5936106939
C                57.3722771598       44.7049407661       78.4206837913
C                58.0369126578       43.5005744142       77.7388802015
O                57.5473102499       42.3832754420       77.8016560330
C                55.8738652517       44.5040437237       78.6518455694
C                55.1999575674       45.3607134304       77.5689655821
C                56.3457137078       45.9149860551       76.7011410997
H                57.9386667274       44.8928708191       79.3369137090
H                55.6202746104       43.4493658852       78.5562000902
H                55.5860802617       44.8423526097       79.6444372966
H                54.4931795158       44.7914902393       76.9706906026
H                54.6524389810       46.1886976782       78.0168112113
H                56.5446906608       45.2883813071       75.8256314729
H                56.1215568953       46.9181127663       76.3521279326
N                59.2546042341       43.7314622269       77.2146469979
C                59.9847427636       42.6041841896       76.6713172450
C                60.0224771148       41.5569283062       77.7728093242
O                60.2462741310       41.8996668373       78.9287480581
C                61.4583696619       42.9427739307       76.3754744480
O                61.4705404571       44.0841442064       75.5509097032
C                62.1796544921       41.7836926772       75.6894434156
H                59.5537583434       44.6510436695       76.9288281374
H                59.4947260613       42.2447319672       75.7578487286
H                61.9450551471       43.1705371909       77.3410775446
H                62.3832939847       44.3423010476       75.3824351038
H                63.1905965295       42.1032103229       75.4392447644
H                62.2382522083       40.9059229473       76.3231315924
H                61.6650552576       41.5342433727       74.7650434539
H                58.4750773132       48.5651056513       72.0923810284
H                59.8652370502       40.5941511782       77.5529553642
H                52.5878264107       39.3875879532       86.0796235823
H                48.6494151372       37.4200132759       82.3717972055
H                47.4326252277       31.9653995591       82.6212427757
H                37.8887975286       39.4187902341       79.4822867601
