 193 
 
N                11.2116200277       13.4423327957       11.5337040072
C                10.4793341710       14.5079352038       10.8546028160
C                11.4466215859       15.5191580315       10.2383547330
O                11.2433530192       15.9719005687        9.1159639470
C                 9.4941337858       15.2590614043       11.7914051800
C                 9.3159870516       16.7582664921       11.6579913159
C                 8.6284432511       17.3632604154       10.5671143359
C                 9.6980765978       17.5960067648       12.6943714608
C                 8.3862583467       18.7162423973       10.5386918505
C                 9.4374363340       18.9467092761       12.6866752806
C                 8.7575671364       19.5534298126       11.6244121287
O                 8.4788468096       20.8974079001       11.7716286856
H                11.1358362006       13.3451274360       12.5393352637
H                 9.9304777540       14.0519498900       10.0222034629
H                 8.5152758421       14.7914229665       11.6660394117
H                 9.8292560842       15.0626336066       12.8119272335
H                 8.3164140657       16.7530119878        9.7331983828
H                10.2139322180       17.1724247736       13.5429488084
H                 7.8754938033       19.1605146813        9.6940145932
H                 9.7240295473       19.5618487762       13.5217562263
H                 8.1937479800       21.2913721292       10.9133193490
N                 2.3591115725       26.8967367103       18.4525221689
C                 1.5359084544       27.8605817804       17.7317227175
C                 0.2243321910       28.2078737509       18.4496825274
O                -0.3452474078       29.2880960865       18.2154666192
C                 1.2249936620       27.1941718116       16.3829482404
C                 2.4343281245       26.3005652600       16.1696959577
C                 2.7061905403       25.7756466044       17.6010093020
H                 2.0990422863       28.7902680010       17.5893286315
H                 0.3279508969       26.5805886525       16.4760248434
H                 1.0604524632       27.9251232645       15.5942437008
H                 2.2371783726       25.4817294179       15.4834801324
H                 3.2860578945       26.8799773331       15.8190133743
H                 2.0601186651       24.9211008877       17.8205491871
H                 3.7581578228       25.5159312035       17.7300168018
N                -0.1752615570       25.2994015402       13.4627746255
C                -1.1598359573       24.8450453301       14.4831370768
C                -0.5361852647       23.9871486178       15.5613005825
O                -0.7867770673       24.1978822355       16.7494517069
C                -2.3704761837       24.1222326717       13.8660351270
C                -3.1354248554       25.1281432182       12.9772470078
C                -3.2327224844       23.5302498426       14.9923588125
C                -4.2060988799       24.4421252537       12.1042444664
H                 0.2396839085       24.5902824862       12.8659488039
H                -1.5170373288       25.7603218721       14.9668776142
H                -2.0072203924       23.3039427262       13.2342593725
H                -3.6128426135       25.8816641668       13.6046014780
H                -2.4335722742       25.6296524380       12.3115007379
H                -4.1898232064       23.2034077714       14.5988428746
H                -2.7382139132       22.6611945179       15.4228721319
H                -3.3839535930       24.2562497441       15.7852043443
H                -4.7015875184       25.1896755346       11.4908703227
H                -3.7375236506       23.7096039831       11.4532122224
H                -4.9536199381       23.9375134066       12.7064176119
N                 0.2611280221       22.9859602166       15.1647037898
C                 0.8046780985       21.9523607409       16.0159427709
C                 2.2551361932       22.2647200657       16.3922943582
O                 3.0703189568       22.6091660181       15.5340609064
C                 0.8060817422       20.6657176608       15.1844557625
C                 0.9629639679       19.3712478790       15.9554504960
O                 1.6785637941       19.4219308263       16.9771988405
O                 0.3049152105       18.4273334407       15.5013683512
H                 0.5287029816       22.9476413597       14.1801101461
H                 0.1819695619       21.8438193232       16.9065613007
H                -0.1236247791       20.6036029389       14.6117937368
H                 1.6195664741       20.7203541150       14.4542253024
N                 2.5701809944       22.1591774556       17.6850458084
C                 3.9471575239       22.3771722647       18.1490397838
C                 4.9851943015       21.4872016157       17.4480871738
O                 6.1291046127       21.8572404781       17.1721884319
C                 3.9866472462       22.2693333684       19.6894108624
C                 3.7450773188       20.8257760053       20.1335272963
C                 5.3384629622       22.7497102149       20.2056562984
H                 1.8567299030       21.9005227838       18.3558695743
H                 4.2251159027       23.4018129647       17.8644356992
H                 3.1776970141       22.8991042182       20.0701250128
H                 3.6701022294       20.7729855570       21.2162438636
H                 2.8229314120       20.4295541177       19.7111991492
H                 4.5597618306       20.1813130960       19.8128391917
H                 5.3453422750       22.7300302167       21.2908937370
H                 6.1240686616       22.0939560928       19.8436854518
H                 5.5449034766       23.7579548744       19.8567612264
N                 4.5342773120       20.3254922377       17.0248013990
C                 5.3890162973       19.3948101688       16.3273345703
C                 5.4907386914       19.6311446761       14.8435316321
O                 6.1885171543       18.9384459714       14.1169803729
H                 3.5653707896       20.0499432912       17.1671145351
H                 6.4019126212       19.4640151671       16.7397837192
H                 5.0254507140       18.3764451761       16.4879873141
N                 4.7186101518       20.6073550152       14.3253122264
C                 4.7972699955       20.9721735931       12.9238406296
C                 4.7604381507       22.5184160845       12.9145344353
O                 3.7815747927       23.1144941868       12.4832290767
C                 3.6136951101       20.4515895828       12.1196884493
C                 3.5774388216       18.9139433296       11.9887110542
C                 4.6590555437       18.3523335741       11.0748531234
N                 4.5964305113       16.9038919411       10.9119791141
C                 5.1626558972       16.0415071006       11.7572434199
N                 5.9208504299       16.4276018897       12.7701208988
N                 5.1332925950       14.7402372450       11.4481554031
H                 4.1055516075       21.1744068797       14.9006133913
H                 5.7480032344       20.6094280714       12.5237381379
H                 2.6884803386       20.7696617608       12.5978083591
H                 3.6535730531       20.8892011700       11.1212711356
H                 3.6370991520       18.4618065864       12.9827260767
H                 2.5990423295       18.6292067507       11.5908966540
H                 4.5330796324       18.8004891260       10.0860713639
H                 5.6518316614       18.6123187321       11.4479864517
H                 3.9005682135       16.5405275637       10.2714908773
H                 5.9920698798       17.3896382684       13.0859809579
H                 6.3571539595       15.7299248048       13.3491086917
H                 4.3887994819       14.3744890383       10.8392480664
H                 5.4427935291       14.0834086324       12.1467617624
N                 5.7906369152       23.1445248171       13.5159984182
C                 5.7132049633       24.5872224896       13.7761365571
C                 6.5317512563       25.4484283756       12.7884762579
O                 6.8823094468       26.5797551293       13.0981465353
C                 5.9897604899       24.8852268020       15.2335704300
C                 7.4352945604       24.6432334078       15.6064540195
O                 8.1507319112       24.1008624472       14.7683654494
N                 7.7936994695       24.9984002909       16.8334955377
H                 6.5573928709       22.6443464893       13.9441838584
H                 4.6681257043       24.8566844055       13.5613089110
H                 5.7035407099       25.9138423705       15.4561688869
H                 5.3600561842       24.2239115485       15.8346464518
H                 8.7227104496       24.7553805712       17.1744809470
H                 7.1088066903       25.3836766061       17.4756148372
O                -0.3042586702       16.1756303959       16.6930695858
H                 0.5095642790       15.6662393423       16.6894792348
H                -0.0747491088       17.0050692917       16.2240709799
O                 2.8409510054       17.5037629454       18.4769631999
H                 2.6137355032       17.7217268329       19.3840395806
H                 2.3317787659       18.1163130399       17.9100299103
O                 0.1811858842       22.7422319803       19.3305939362
H                 0.4518768758       23.5339793462       19.8346056294
H                -0.3420484993       23.1017583325       18.6033609977
O                 8.6354588878       21.4665968409       18.4538565587
H                 9.0192577793       22.3438321743       18.5581048732
H                 7.8176660487       21.5996116037       17.9563777313
O                 4.6912683999       15.8660238056       17.1705167781
H                 5.2215811529       15.5312955088       17.8997645686
H                 3.9902253876       16.3918428530       17.5816480954
O                 7.2311649919       18.4238367035       20.0167638106
H                 7.8874025370       19.0337826247       19.6589259329
H                 7.2403094130       18.5509040227       20.9681353673
O                 1.0682062063       22.9991965296       12.3277939889
H                 0.7870947455       22.0875184920       12.1434053497
H                 2.0326893246       23.0081009047       12.4024602567
N                 0.7274638902       19.4995940266        8.5708206837
C                 0.1967009496       20.4330727752        9.5667375407
C                 0.1122672941       19.7627749815       10.9344011873
O                 0.2814489693       20.4710415413       11.9442081514
C                -1.1847079326       20.9008675884        9.1377506769
C                -1.8594494531       21.7186972722       10.2333677321
C                -1.0434139516       21.6407339605        7.8124151283
H                 0.0822964226       18.8261910068        8.1847689422
H                 0.8904710565       21.2719783636        9.6522677057
H                -1.7859371520       19.9939369077        8.9873080784
H                -2.8079234179       22.1041297701        9.8671603753
H                -2.0483214635       21.1094140648       11.1128952507
H                -1.2300500766       22.5538229766       10.5325647343
H                -1.9928813470       22.0807941342        7.5195943348
H                -0.3229836111       22.4475033493        7.9182601347
H                -0.6951453057       20.9586039318        7.0424628932
N                -0.1661026607       18.4707613811       10.9880120367
C                -0.2298481430       17.7865352497       12.3229018105
C                 0.8054782098       16.6299002475       12.5266115021
O                 0.9419386024       15.8743925825       11.5398381747
C                -1.6028567994       17.0988325204       12.4071470615
C                -2.6706831466       18.1292071172       12.5436853533
C                -2.7797999063       18.8499251246       13.7263847405
C                -3.4871795438       18.4531430433       11.4597239426
C                -3.7496958748       19.8505962506       13.8291031856
C                -4.4443145934       19.4555773934       11.5567549570
C                -4.5727926045       20.1524505005       12.7463118820
O                -5.4782839198       21.1614262016       12.9130427592
O                 1.3963132592       16.4749344481       13.6216143295
H                -0.3145005172       17.9019768511       10.1711279858
H                -0.0922013996       18.5417060789       13.0944845792
H                -1.7358286606       16.4926288269       11.5076741356
H                -1.5863208767       16.4304446296       13.2730507560
H                -2.1122188854       18.6314121573       14.5444320969
H                -3.3570737073       17.9135053881       10.5336562996
H                -3.8291701019       20.4409125780       14.7249452179
H                -5.0576813751       19.6990376144       10.7042327069
H                -5.8447203376       21.4399096457       12.0319089193
H                10.9453106133       12.6441145007       11.2144441610
H                12.2523739521       15.8165678042       10.7505173550
H                 3.1571756422       27.2664863010       18.6432549162
H                -0.1718942072       27.5654323098       19.1056349923
H                -0.5708620241       25.8815535905       12.9018831379
H                 6.7778293950       25.0823349995       11.8910236465
H                 1.0458063389       19.9606771743        7.8665051179
