 355 
 
N                64.9896941749        3.0925033120       23.9391371046
C                64.8878926382        3.2336416237       25.3776720198
C                64.8056509206        1.9257091956       26.1629890842
O                64.8511249189        1.9279678648       27.3839872504
C                63.6020254712        4.0041533522       25.7290309958
C                63.5241934005        5.4239101179       25.1926860880
C                62.0217736924        5.8847896464       25.1248538008
O                61.1997208205        5.0338973126       24.7316556806
O                61.7898448925        7.0618670376       25.4583788286
H                64.1121189288        2.9438664485       23.4545281572
H                65.7695649230        3.7754629781       25.7336131925
H                62.7501578839        3.4638125476       25.2997396881
H                63.4930632078        4.0091344967       26.8146371288
H                64.0765320969        6.1405092736       25.7991887475
H                63.9049974399        5.4649593110       24.1696723512
N                64.5820849965        0.8284722570       25.4300310378
C                64.1613038647       -0.4238463352       26.0057814292
C                65.2015762032       -1.5414458975       25.8779095348
O                65.9476752554       -1.6634886807       24.9250292872
C                62.9056175058       -0.9764383272       25.3144980366
C                61.6363120526       -0.2588848164       25.6503577725
C                61.4609529465        0.9556888601       26.2488857618
C                60.3254117172       -0.7725580919       25.3946109848
N                60.1274143773        1.2310441916       26.3785081793
C                59.4051777165        0.1975145821       25.8602847244
C                59.8489297406       -1.9592441892       24.8374989435
C                58.0308160545        0.0020874667       25.7720058793
C                58.4894138150       -2.1485009295       24.7578306881
C                57.5915183056       -1.1794487774       25.2150551655
H                64.6924541369        0.9009111696       24.4294818913
H                63.9617683209       -0.2275707781       27.0629940251
H                63.0788795063       -0.9721775923       24.2330441098
H                62.8125964382       -2.0276615971       25.5984015105
H                62.1846397502        1.6554965166       26.6202593552
H                59.7534085354        2.0915353763       26.7396936950
H                60.5381016094       -2.7108900695       24.4895928833
H                57.3347901697        0.7482650566       26.1281127864
H                58.0992011713       -3.0618718995       24.3401104573
H                56.5307096015       -1.3616649844       25.1362145220
N                65.1006344154       -2.4217965033       26.8842176949
C                65.6145506865       -3.7667795065       26.9122982354
C                64.6640412507       -4.5290632760       27.8513385163
O                63.9844567962       -3.9035552068       28.6586279644
C                67.0610687654       -3.8630306403       27.4349936426
O                67.4393785601       -5.2117585735       27.3803809439
H                64.4972948452       -2.2318167967       27.6810983688
H                65.5817930232       -4.1790307532       25.8986031445
H                67.7126525627       -3.2417225171       26.8059766969
H                67.1147356173       -3.4821862484       28.4657397910
H                68.3638355208       -5.2806280485       27.6497618419
N                64.5954227509       -5.8512025211       27.6983359309
C                63.7044418553       -6.6247491026       28.5583986536
C                64.0539947045       -8.1117958949       28.4193124725
O                63.6330740647       -8.7758771851       27.4920676472
C                62.2358437119       -6.3996550944       28.1478376480
C                61.2875722329       -6.9803219614       29.1592827602
C                61.0652227499       -6.3231091632       30.3638231176
C                60.6228748694       -8.1739924145       28.9145718966
C                60.1833450248       -6.8405175173       31.2970845977
C                59.7410189730       -8.6948291588       29.8462424926
C                59.5136651379       -8.0270709293       31.0381858403
H                65.3080958392       -6.3534028872       27.1651546199
H                63.8304650865       -6.2866716930       29.5944673648
H                62.0716574843       -5.3240171961       28.0667383551
H                62.0772960417       -6.8647864006       27.1758070926
H                61.5775464864       -5.3910812072       30.5606467196
H                60.7984199314       -8.6977335183       27.9890507282
H                60.0114746604       -6.3132389740       32.2255513424
H                59.2281088903       -9.6225731704       29.6435121204
H                58.8190304850       -8.4249261803       31.7642686317
N                64.8972451086       -8.5648624772       29.3595565050
C                65.1856033391       -9.9753293372       29.6179223142
C                65.1614838390      -10.7006802765       28.2687981251
O                64.3701538158      -11.5631675935       27.9500346839
C                64.2161524860      -10.5275090673       30.6753029245
C                64.0819633046       -9.5182185947       31.7704177645
C                62.9606130862       -8.8077483458       32.0822968479
C                65.1408975263       -8.9749386310       32.5678891482
N                63.2444378183       -7.8623458354       33.0295232154
C                64.5726469296       -7.9258893936       33.3357464762
C                66.5004902091       -9.2614850302       32.7084646668
C                65.3419918435       -7.1545205976       34.1992482760
C                67.2560484048       -8.4911781870       33.5630779334
C                66.6864573829       -7.4441718676       34.2934013515
H                65.1409706903       -7.9530391977       30.1244608892
H                66.2042441825      -10.0273435757       30.0149478021
H                63.2417677858      -10.7080024713       30.2204553312
H                64.6068349355      -11.4726533586       31.0544227157
H                61.9665936157       -8.9168207757       31.6965973037
H                62.5853230164       -7.1923209363       33.3886034469
H                66.9534603979      -10.0812809299       32.1722161037
H                64.9076815525       -6.3493806474       34.7745129574
H                68.3109364784       -8.6927786881       33.6797495097
H                67.3128618592       -6.8553217922       34.9477925280
N                66.1952286881      -10.2991071714       27.4898505683
C                66.0825283599      -10.2615935867       26.0499184079
C                65.8899810686       -8.7872709115       25.6710856504
O                66.1709721388       -7.8972378633       26.4617864683
H                66.7306170536       -9.5053639800       27.8286313229
H                67.0128647370      -10.6367466108       25.6157990551
H                65.2272183145      -10.8765899041       25.7673731071
N                65.4461566087       -8.5508327549       24.4327160245
C                65.1454833253       -7.2028809143       23.9913997637
C                63.8198915713       -7.2554721767       23.2343435803
O                63.5130581526       -8.2558064020       22.6005176378
C                66.3180856447       -6.6400978200       23.1487671236
C                66.2044705976       -5.1243430531       22.9576552785
C                66.4514617357       -7.3616839997       21.8086167207
C                67.5684240040       -4.4787121822       22.7306110391
H                65.1483379470       -9.2882603197       23.8051934118
H                65.0398644855       -6.5829385306       24.8867366136
H                67.2150719352       -6.8152778078       23.7523311344
H                65.5480800466       -4.8865831448       22.1173335239
H                65.7647545462       -4.6570903682       23.8427135298
H                67.2785453016       -6.9193366300       21.2627097630
H                66.6112383765       -8.4218611015       21.9716605667
H                65.5510828393       -7.2274225857       21.2141802935
H                67.4541319491       -3.3970099194       22.7287131816
H                68.2607593870       -4.7305020956       23.5313377893
H                67.9996953106       -4.7804986962       21.7812673230
N                63.0594097266       -6.1807268655       23.4204041536
C                61.8600548256       -5.7570374583       22.7288595537
C                62.0015266692       -4.2282279860       22.6811406089
O                62.7187189269       -3.6712482392       23.5057454731
C                60.5419637589       -6.0693115167       23.4997622380
C                60.6422379093       -7.2214924031       24.5007367440
C                60.7844412927       -8.5924748784       23.8365303428
C                61.3251922162       -9.6330894965       24.8178677387
N                62.1401323650      -10.6610432482       24.1092812243
H                63.4393815475       -5.4057315127       23.9603375486
H                61.8317058570       -6.1839440778       21.7236010687
H                60.2478381589       -5.1754823080       24.0541445285
H                59.7640826830       -6.2728254744       22.7655014975
H                61.5018575916       -7.0312317141       25.1443949227
H                59.7547620896       -7.1975254891       25.1338833040
H                59.8206199026       -8.9044152924       23.4380204439
H                61.4839588561       -8.4914129580       23.0088543401
H                61.9811318857       -9.1519140964       25.5491744466
H                60.5140789094      -10.1179927138       25.3586351802
H                62.5365673915      -11.3034719350       24.8077198295
H                61.6231949744      -11.2323264034       23.3913211278
H                62.8808696910      -10.1702879321       23.5796663032
N                61.2946882932       -3.5614215217       21.7575729218
C                61.5538550765       -2.1514509825       21.5747429913
C                60.3506283649       -1.2023248309       21.6477070799
O                59.2967678975       -1.3889801662       21.0668662318
C                62.2184335268       -1.8874945732       20.2027333979
C                63.6170350957       -2.4279931551       20.1214647685
C                63.8850896400       -3.6732723409       19.5686946469
C                64.6775902164       -1.6488120451       20.5657472783
C                65.1865848719       -4.1076046144       19.4141076150
C                65.9826786194       -2.0719744868       20.4129946292
C                66.2466713146       -3.2960160042       19.8086160907
O                67.5117677145       -3.7351174144       19.5881443280
H                60.7686757928       -4.0738247089       21.0567496770
H                62.2632894114       -1.8859236858       22.3660021859
H                61.5948790316       -2.3178423378       19.4192517915
H                62.2586539289       -0.8084638125       20.0426754112
H                63.0692011506       -4.2933561904       19.2308272636
H                64.4875063554       -0.6840543319       21.0155802326
H                65.4025513712       -5.0554651087       18.9506051895
H                66.7914106034       -1.4374566493       20.7480780520
H                68.1450787671       -3.0485640255       19.8338000543
N                60.6632524367       -0.0366188567       22.2644223904
C                59.7904197079        1.1110892886       22.3113460772
C                59.4854399874        1.6872015076       20.9365473917
O                58.5291080336        2.4407117607       20.7694929449
H                61.5108628589        0.0232522950       22.8032376472
H                58.8253356230        0.8551910219       22.7650197172
H                60.2475252375        1.8915423701       22.9229560855
N                60.2444275503        1.2690841879       19.9253297658
C                59.9431087338        1.5459110572       18.5290622692
C                58.4371257267        1.3876751382       18.2997214779
O                57.8153517371        2.1413072628       17.5540390986
C                60.7751184980        0.6029970100       17.6464387747
C                61.0928656953        1.1391082334       16.2439632769
C                62.2407441731        0.3159591624       15.6554536042
C                59.8754163842        1.1009866514       15.3252118610
H                61.0984606819        0.7728194452       20.1374176298
H                60.1952653106        2.5890846469       18.2897588563
H                61.7318249444        0.4544152851       18.1513496160
H                60.2792056727       -0.3668646073       17.5718495384
H                61.4290171465        2.1781900189       16.3450103657
H                62.4680418935        0.6521222276       14.6484144846
H                63.1384389234        0.4298005180       16.2583934460
H                61.9863054210       -0.7406293809       15.6293144431
H                60.1618949695        1.4089091634       14.3240404062
H                59.4627652545        0.0959987989       15.3019549599
H                59.1090312498        1.7845148492       15.6794190069
N                57.8389059518        0.3689328305       18.9196493167
C                56.3988490788        0.2065727357       18.8040773577
C                55.6726159408        1.5134232017       19.1398747943
O                54.8786136950        2.0345655444       18.3618672887
C                55.9209177340       -0.9287357482       19.7124871628
C                54.4164476968       -0.9792307946       19.7895345123
C                53.6422533304       -1.0538845848       18.6377676685
C                53.7787718312       -0.9423782857       21.0226795541
C                52.2610657271       -1.0772334971       18.7184099688
C                52.3975874873       -0.9844991230       21.1059491121
C                51.6342297114       -1.0482974163       19.9528450116
H                58.3409456628       -0.2498878142       19.5505269962
H                56.1587756726       -0.0270587108       17.7606375268
H                56.3181455073       -1.8639262352       19.3104358362
H                56.3354399833       -0.7923409349       20.7121691123
H                54.1134189586       -1.0901902412       17.6682907281
H                54.3682035404       -0.8872994914       21.9255510621
H                51.6782147101       -1.1152038255       17.8105860016
H                51.9203369207       -0.9621710446       22.0739934180
H                50.5574375294       -1.0789591552       20.0189178137
N                59.0086249269       -5.7139308436       16.3596731549
C                59.8345386448       -5.2104747637       17.4306276304
C                59.4864758879       -5.7583020738       18.8162890328
O                60.2508843426       -5.5679390581       19.7555149802
C                59.7525625454       -3.6783857995       17.4556878418
C                60.3369051087       -3.1362273711       16.1569288602
O                61.5214069362       -3.2560935075       15.8838369849
N                59.4527566215       -2.5157581888       15.3658741167
H                58.1730569739       -5.1752731762       16.1546875983
H                60.8699477744       -5.5090702454       17.2109285798
H                58.7147120126       -3.3711994727       17.5771287204
H                60.3526752537       -3.3133295809       18.2880741918
H                59.7220321947       -2.2370421652       14.4342483480
H                58.4655226269       -2.5453759677       15.5795571569
N                58.3439381919       -6.4395076070       18.9176131636
C                57.8970198700       -7.0052201753       20.1750139934
C                57.4649873139       -8.4615365617       19.9925824758
O                58.0285747466       -9.3657929329       20.5932446722
C                56.7819863092       -6.1596718726       20.8308965939
C                57.3330747046       -4.7675880179       21.1639023929
C                56.2615448970       -6.8707387078       22.0772448275
C                56.3135769507       -3.8376642462       21.8099758719
H                57.6883282211       -6.4402950590       18.1464464701
H                58.7725202148       -7.0165453620       20.8348994291
H                55.9709734513       -6.0498641723       20.1051705363
H                58.1886410984       -4.8697307821       21.8334760061
H                57.6929417235       -4.3040816874       20.2429371697
H                55.3976386939       -6.3486365711       22.4751433578
H                55.9588727557       -7.8876752367       21.8454669304
H                57.0346071323       -6.9081954531       22.8401159927
H                56.7710279715       -2.8636666028       21.9600000039
H                55.4355471862       -3.7172454872       21.1802106490
H                55.9940839537       -4.2146973592       22.7764795443
N                60.3359856398      -10.8384670500       18.6646292465
C                61.2516435352      -10.9464984657       19.7973344978
C                60.7429440253      -11.7157042458       21.0089899734
O                61.5608370295      -12.1000783471       21.8440553191
C                61.4987381620       -9.4847355023       20.1896560423
C                61.4574141844       -8.7825077768       18.8404739785
C                60.2887039486       -9.4761329889       18.1463048927
H                62.1770068084      -11.4382368458       19.4725457173
H                60.6597235102       -9.1428607182       20.7968840058
H                62.4308532677       -9.3361418734       20.7273870983
H                61.2982194654       -7.7120519698       18.9233357746
H                62.3742145827       -8.9570782090       18.2789756778
H                59.3417580330       -8.9986454923       18.4064480979
H                60.3933111011       -9.4509658615       17.0630664284
N                59.4318332505      -11.8284028900       21.1954867919
C                58.8918572361      -12.6900847716       22.2289532958
C                58.9106983588      -14.1458352865       21.7532546417
O                59.6152902395      -14.9851137414       22.3030307546
C                57.4736475492      -12.2824030526       22.6313863344
C                57.4141927994      -10.9834705966       23.4472026468
C                55.9787910884      -10.4611268811       23.4576876648
C                57.8872801913      -11.2058749681       24.8817971699
H                58.7790461410      -11.4516234860       20.5227716875
H                59.5733172759      -12.6542743923       23.0851423714
H                56.8839812283      -12.1562864280       21.7230432350
H                57.0305243414      -13.0976811948       23.2065631696
H                58.0431582963      -10.2480536769       22.9383565862
H                55.8985279527       -9.5548813254       24.0522438734
H                55.6450529139      -10.2362978364       22.4466491641
H                55.3055534586      -11.2066875801       23.8752143838
H                57.9525991339      -10.2614397921       25.4149173259
H                57.1730872479      -11.8371673666       25.4055896634
H                58.8504476988      -11.7043471779       24.9035648531
N                62.0528729189      -16.2932116254       21.5809268829
C                62.8252771346      -16.5757091333       22.7666968734
C                62.1293260527      -17.4933802502       23.7757043557
O                62.7514999949      -17.8909923175       24.7505945888
C                63.2162363068      -15.2782447328       23.4872532280
C                64.1516569197      -14.4271385569       22.6283075232
C                64.8953915513      -13.4067706086       23.4914416681
C                65.7683652351      -12.4665324695       22.6685261611
N                66.9121555228      -13.2091974865       22.0694214821
H                61.1387951238      -15.8748580291       21.7196186026
H                63.7263454708      -17.1058134180       22.4340341531
H                62.2998777812      -14.7334933400       23.7138273454
H                63.7020993569      -15.5659399559       24.4207362731
H                64.8414658478      -15.1082831245       22.1284726708
H                63.5576657549      -13.9224786709       21.8662283123
H                64.1544216156      -12.8136442500       24.0197278757
H                65.4912563122      -13.9333988490       24.2372619502
H                65.1744669752      -12.0270630252       21.8659888858
H                66.1730946410      -11.6803533166       23.3073857759
H                67.5206384858      -12.5842334580       21.5209161264
H                67.4674798062      -13.6560124223       22.8150599669
H                66.5591165725      -13.9503842634       21.4462796308
N                74.2055739569       -4.7329676801       21.7054569847
C                72.9494732763       -4.0024820349       21.7821653444
C                72.6059901266       -3.7108267920       23.2586595471
O                71.5404676629       -3.9976223710       23.7672228348
C                71.8584999264       -4.8122506172       21.0681389120
C                71.5372488631       -6.1418082137       21.7592138564
C                70.6712400282       -7.0509894758       20.8866049309
C                70.3244129541       -8.3187116537       21.6622130693
N                69.5576108035       -9.2785134032       20.8194356487
H                74.1399921503       -5.7314079868       21.8409284863
H                73.1096827055       -3.0460793114       21.2706897972
H                70.9588680347       -4.1986748220       21.0321279883
H                72.1965332555       -4.9935823428       20.0459380804
H                72.4577502992       -6.6779330845       22.0039400411
H                71.0269654734       -5.9261798155       22.6965873995
H                69.7633396106       -6.5161105067       20.6091253439
H                71.2267169161       -7.2959861580       19.9800600653
H                71.2402644636       -8.8040529544       22.0034573550
H                69.7261375393       -8.0552663206       22.5349588432
H                69.3476445127      -10.1356257848       21.3521724365
H                68.6712979720       -8.8534566602       20.5046496030
H                70.1106696762       -9.5384004534       19.9884511187
N                60.7296397811       -4.3972571497       39.9349457533
C                59.3191729211       -4.1088989192       39.6765799441
C                58.5938219818       -4.1330184193       41.0257041332
O                57.7313346648       -4.9243484425       41.3444675744
C                58.7669931910       -5.0783497723       38.6191993338
C                59.7762836636       -5.2125389537       37.5240844938
C                60.4867539125       -6.3338891721       37.2122054104
C                60.3195636273       -4.1536047320       36.7266131101
N                61.4321564229       -6.0500644400       36.2649790429
C                61.3686128647       -4.7218553287       35.9587557821
C                60.0330172281       -2.7940120492       36.5860375915
C                62.1399816607       -3.9525104148       35.0952539823
C                60.8033240713       -2.0384538535       35.7314243249
C                61.8503303907       -2.6080448754       35.0011009068
H                61.3414630606       -4.1535315680       39.1700413691
H                59.2671586826       -3.0902580758       39.2795544562
H                58.5864997870       -6.0527344725       39.0740469271
H                57.8218488997       -4.6876673228       38.2400795426
H                60.3776814826       -7.3279086426       37.5979049546
H                62.1021813220       -6.7091792419       35.9058988114
H                59.2132213284       -2.3410418604       37.1222861547
H                62.9451216109       -4.3868207058       34.5199893009
H                60.6017235702       -0.9835657799       35.6147527486
H                62.4391804661       -1.9816403991       34.3467097303
H                65.3508703174        3.8387349280       23.5888655394
H                55.8396532363        1.9676625867       20.0149548610
H                59.4860886904       -5.7361718487       15.5970895908
H                56.7113363172       -8.6858502739       19.3747689653
H                60.7111989197      -11.2144288539       17.9380841918
H                58.3412667369      -14.4268238131       20.9807308065
H                62.5062802235      -15.7190498875       21.0567512302
H                61.1763783297      -17.7611643088       23.6336398101
H                74.5741184285       -4.6123859241       20.8932778096
H                73.2775570579       -3.2634275539       23.8492793729
H                61.0042513900       -3.9325976207       40.6551401621
H                58.8211205172       -3.4581157162       41.7277309968
