 252 
 
N               -12.8891083690       82.1459999472        5.3139073080
C               -11.9952841118       81.0730929696        4.9328829191
C               -11.9586443114       80.8181385134        3.4265896350
O               -10.8866570227       80.7271476056        2.8449571908
C               -12.3306559607       79.7567466497        5.6108324776
C               -11.1659691749       78.7531224614        5.4260207322
C               -10.5310528453       78.4233716813        6.7987621776
C               -11.6163036146       77.5203559453        4.6181679238
H               -13.7013057081       81.9288792490        5.8737506475
H               -10.9751229792       81.3746767472        5.2049549374
H               -12.4892160278       79.9339549761        6.6766620854
H               -13.2468980799       79.3329078040        5.1996378632
H               -10.3788432543       79.2273734981        4.8302838836
H                -9.6978147281       77.7353099023        6.6749203070
H               -10.1596743006       79.3295422436        7.2651051351
H               -11.2557250797       77.9660632321        7.4679484510
H               -10.7895158084       76.8263943649        4.4760520003
H               -12.4183829073       76.9927640005        5.1292040899
H               -11.9610273278       77.8197342562        3.6298734472
N                -7.5662642702       79.6289977269       11.1937656866
C                -8.9520639939       79.5545754166       10.8809877618
C                -9.4530273199       78.2950387463       10.2470384327
O               -10.6623804155       78.2209538728       10.0728259313
C                -9.4180989697       80.6921343685       10.0245242865
C                -9.4514699095       82.0041503231       10.8628341875
C               -10.8339543359       82.7246032258       10.9329463479
N               -11.0258358255       83.6872180087        9.8374718718
C               -11.7035715944       83.5216747973        8.6748728807
N               -12.8559103539       82.8832706765        8.5730985879
N               -11.2217293133       84.1126241519        7.5919805317
H                -6.9042128649       79.7768549015       10.4418623146
H                -9.4823149052       79.5852364112       11.8463401379
H                -8.7496112022       80.7847317302        9.1675639250
H               -10.4181333335       80.4554770980        9.6611973312
H                -9.1415764114       81.7732527129       11.8797799961
H                -8.7171490960       82.7026879067       10.4581896587
H               -11.6474883245       81.9999913926       10.9242420715
H               -10.8852606716       83.2644072918       11.8812047529
H               -10.1996123423       84.2635301635        9.7192102475
H               -13.2918051854       82.2154269150        9.2324730988
H               -13.2854638839       82.8664906474        7.6660841056
H               -10.4567698159       84.7676760785        7.6403481875
H               -11.7861562735       84.2206104086        6.7614063612
N                -8.6023604665       77.3076519775       10.0060250030
C                -9.0383488823       75.9275014366        9.8953598874
C                -9.5855602857       75.4555568936       11.2841380224
O               -10.5784582371       74.7368077184       11.4000999821
C                -7.9251970931       74.9969093321        9.3924317085
C                -7.4853882930       75.1163243777        7.9056380397
C                -8.4297896290       74.5390819253        6.8275328058
N                -8.7087035297       73.0878455224        6.9153882495
C                -8.8033255492       72.1511372925        5.9529384389
N                -8.2678226600       72.3033247410        4.7425496343
N                -9.4249955025       70.9927444645        6.2279656707
H                -7.6127271098       77.4606744538       10.1184426613
H                -9.8994715703       75.8924692875        9.2138356230
H                -7.0502853605       75.1746562694       10.0177097219
H                -8.2450123392       73.9718711498        9.5848061919
H                -7.3434778833       76.1720317221        7.6734343655
H                -6.5179176236       74.6181299531        7.8254681931
H                -9.3940434662       75.0539118300        6.9017310052
H                -8.0161162196       74.7574563661        5.8446385137
H                -9.1030597202       72.8236925003        7.8090456337
H                -8.1841645865       73.2609811832        4.3669726875
H                -8.4958717158       71.6330193461        4.0251039927
H                -9.6787585961       70.7358323542        7.1691690293
H                -9.3957869583       70.2552115259        5.5417708125
N                -8.9517638897       75.9410795045       12.3510899276
C                -9.4875993140       75.6664390631       13.6659802754
C               -10.7406577534       76.5254346001       13.9027737040
O               -11.8196526603       75.9512731507       13.9466757005
C                -8.3391339278       75.7138345954       14.6693223588
C                -7.4956685586       74.4544707636       14.4001771867
C                -6.1695081142       74.1869090562       15.2405180057
O                -6.2935383896       73.8148318270       16.4263632643
O                -5.1021004605       74.3132847832       14.6104609958
H                -8.0781934690       76.4448915973       12.2778323559
H                -9.8935273930       74.6428721896       13.6515515172
H                -7.7526022698       76.6244916865       14.5291605276
H                -8.7058481842       75.6934955506       15.6959639800
H                -8.1148989653       73.5776839108       14.6096224851
H                -7.1882133620       74.4339700009       13.3536325761
N               -10.6198634685       77.8541886468       13.9540175504
C               -11.7329397488       78.7320456875       14.3075461643
C               -13.0034642232       78.1627171810       13.6889896965
O               -14.0119839689       78.0465502341       14.3728426182
C               -11.4471789150       80.2147689540       13.9818441991
C               -10.2121849447       80.6770131896       14.7841715438
C                -9.7517201789       82.1722656447       14.6502044835
O               -10.6665389398       82.9840827855       14.4153926639
O                -8.5340889861       82.4113746674       14.8278120932
H                -9.6939386236       78.2659158475       13.9219001236
H               -11.8859931591       78.6738165610       15.3971958848
H               -11.2846478815       80.3406495143       12.9112792090
H               -12.3106276498       80.8189549576       14.2512899984
H               -10.4195303592       80.5468556402       15.8520820614
H                -9.3345758655       80.0714186069       14.5534524010
N               -12.9259333835       77.7163730043       12.4312592776
C               -14.1260938171       77.2269383450       11.7843625580
C               -14.4283519094       75.7474206297       11.9590858822
O               -15.5937321498       75.4167324374       12.1846347802
C               -14.1906139722       77.4997885844       10.2725221154
C               -15.0338672711       78.7327348772        9.9155467164
C               -14.4391317031       80.1343454672       10.3087526496
O               -14.4019663399       80.9395792069        9.3457624215
O               -14.0696226473       80.3797798405       11.4756042829
H               -12.1433364555       77.9766198280       11.8467877188
H               -14.9624709320       77.7439223048       12.2757191058
H               -13.1719576036       77.6232356131        9.8950548449
H               -14.6355531631       76.6306370117        9.7849901790
H               -15.1886349142       78.7634711600        8.8357167366
H               -16.0094046564       78.6491726125       10.4016121165
N               -13.4751301331       74.8284014677       11.7265539350
C               -13.9154632167       73.4900569466       12.0210954127
C               -14.1951034282       73.2226452030       13.5097559774
O               -14.6277492409       72.1289058225       13.8313336058
C               -13.1426807169       72.3609052882       11.3752208092
O               -14.0268125862       71.6884518284       10.4847708961
H               -12.4841417580       75.0440555258       11.7395681259
H               -14.9237998087       73.4256928386       11.5787057649
H               -12.2791632264       72.7686047278       10.8331204100
H               -12.7833182114       71.6842162274       12.1579401625
H               -13.7546975038       70.7616841881       10.4212062159
N               -14.0591353919       74.2485763399       14.3646033265
C               -14.7759955292       74.3402843937       15.6362667266
C               -16.2679282252       74.4004732504       15.3386773102
O               -16.9868977382       73.4058398572       15.3590067421
C               -14.3717005667       75.5511692497       16.4872389013
H               -13.4958656039       75.0494026142       14.1114025656
H               -14.6096177554       73.4111684801       16.2007334260
H               -15.0928571364       75.6974511226       17.2850759657
H               -13.3968626557       75.3646954586       16.9342930218
H               -14.2905006205       76.4548495626       15.8880354901
N               -16.7374319020       75.6197682320       15.0906057678
C               -18.1526614116       75.8486505784       15.2442351643
C               -18.9273360897       74.7716005150       14.4976314372
O               -19.9259298154       74.2633438319       14.9965289248
C               -18.5392006816       77.2233532196       14.7468987104
H               -16.1166879093       76.4134927911       15.0369169422
H               -18.4211304781       75.7491549361       16.3084239981
H               -19.6056798338       77.3742543010       14.8801588411
H               -18.0036625939       77.9872063205       15.3051591427
H               -18.2918377864       77.3177019597       13.6915362406
N               -18.4821451275       74.5084814479       13.2608759090
C               -19.1057183684       73.5221298112       12.3815019443
C               -19.5709347280       72.2897777155       13.1623024019
O               -20.7246076183       71.8702386679       13.1518595481
C               -18.1182419420       73.0509550081       11.3163597958
H               -17.6134723755       74.9221312342       12.9431845745
H               -19.9939135490       73.9671158223       11.9138158956
H               -18.5938817269       72.2894334691       10.7051170460
H               -17.8332578408       73.8885940086       10.6848371862
H               -17.2262776577       72.6343287562       11.7737634863
N               -18.5565516886       71.6692733536       13.7707255316
C               -18.7225250200       70.4765997678       14.5725248806
C               -19.7826525452       70.6737958886       15.6621185812
O               -20.7829575065       69.9628004573       15.6584591826
C               -17.3823311610       70.1077295720       15.1960589508
H               -17.6738575975       72.1497042161       13.8911990012
H               -19.0925116052       69.6642020787       13.9322885410
H               -17.5062991133       69.2470370417       15.8482338353
H               -16.6715513990       69.8569305832       14.4127843280
H               -16.9777118435       70.9351237809       15.7700660281
N               -19.4469640913       71.6268553253       16.5497467678
C               -20.2315135220       72.1482968363       17.6544882973
C               -21.6026223322       72.6758092463       17.2337255960
O               -22.3398362876       73.1895452584       18.0589371070
C               -19.4429502261       73.2583517554       18.3395118282
C               -19.9830357962       73.7233266751       19.6908558223
C               -19.1881462335       74.9980927433       20.2845137527
O               -18.4230693250       75.6264499657       19.5157728835
O               -19.3921921663       75.2977928426       21.4840500426
H               -18.6674887126       72.2168875040       16.2806023619
H               -20.4208714114       71.3310679975       18.3659366850
H               -18.4081218909       72.9295140557       18.4721801629
H               -19.4223154926       74.1231562554       17.6692561709
H               -21.0233015999       74.0277106573       19.6002779602
H               -19.9247171905       72.9226231427       20.4305273607
N               -21.9904681576       72.3931783354       15.9791158296
C               -23.3376437489       72.6656789328       15.5682562877
C               -23.9545668015       71.5667602501       14.7263732093
O               -25.1694799239       71.3904051441       14.7639284994
C               -23.4352153693       74.0460276274       14.9530628507
C               -24.7528247440       74.1789098777       14.2068378393
C               -23.2719547774       75.0672394407       16.0752089050
H               -21.2974746073       72.3527903779       15.2485263683
H               -23.9388139129       72.6820944995       16.4883944304
H               -22.6076249911       74.1635522560       14.2437551824
H               -24.8826331419       75.2020663408       13.8596312758
H               -24.7738052705       73.5230251459       13.3407337585
H               -25.5868207239       73.9208103377       14.8529797056
H               -23.4085335315       76.0736245646       15.6821445859
H               -23.9957873403       74.8984934919       16.8650915577
H               -22.2740880354       75.0146952480       16.4972809170
N               -23.1536775349       70.7529382875       14.0402077257
C               -23.7185445217       69.4423438192       13.7718410356
C               -23.8917474673       68.6990298807       15.1119241514
O               -24.5964611252       67.7054941394       15.1788526390
C               -23.0326461839       68.6157744740       12.6539909230
C               -24.0665105004       68.0755389512       11.6375098403
C               -23.5521653622       67.3267453814       10.3313703484
O               -22.7007933457       66.4282353777       10.4783244286
O               -24.0910651106       67.6700941163        9.2553367004
H               -22.1610539958       70.9040087833       13.9392706987
H               -24.7502607184       69.6274379938       13.4374990337
H               -22.3359014008       69.2747180721       12.1308088687
H               -22.4604475542       67.7915636190       13.0764995407
H               -24.7247598680       67.3694820872       12.1491393332
H               -24.6807683943       68.9033520150       11.2736581947
N               -23.3480475089       69.2826770470       16.1960730808
C               -23.6037893743       68.7455999073       17.5326794805
C               -25.0628542286       69.0250635967       17.8465377887
O               -25.8750609513       68.1405480478       18.0553462263
C               -22.7559446725       69.3955859325       18.6525236322
C               -21.5249752414       68.5821894075       19.0580848343
C               -21.8705997389       67.2864062285       19.8938506873
O               -21.1556075174       67.0917930623       20.9014938064
O               -22.7991714184       66.5598931405       19.4862101892
H               -22.5087214182       69.8352015496       16.0713682416
H               -23.4588686906       67.6584739737       17.5558608521
H               -22.4490625290       70.3955451630       18.3375561625
H               -23.3793014745       69.4993864792       19.5442717521
H               -20.9704990929       68.2666806467       18.1690687340
H               -20.8582074431       69.1797521925       19.6814581553
N               -25.3490871666       70.3368133264       17.8873545703
C               -26.6235550420       70.8128343238       18.3599401125
C               -27.6965613724       70.1587044954       17.5188490992
O               -28.5943639929       69.4776992784       18.0054591189
C               -26.7431363366       72.3234227070       18.3133959146
C               -27.5970188453       72.7467816801       19.4908398368
C               -27.4248564815       74.2257629020       19.7997604110
N               -27.6576799665       74.4989245324       21.2117678466
C               -28.6710647397       75.1587770331       21.7658852453
N               -29.7120729257       75.5775312163       21.0567596898
N               -28.6708407775       75.3619299228       23.0899221570
H               -24.6073968462       71.0071211998       17.7580422021
H               -26.7695179135       70.4479130858       19.3869187220
H               -25.7442757423       72.7565489285       18.4164315873
H               -27.1649260851       72.6577619106       17.3656321163
H               -28.6412561684       72.4882331982       19.3250164564
H               -27.2574145654       72.1935869133       20.3701140715
H               -26.3870400884       74.5078910571       19.5990653513
H               -28.0622625177       74.8520524279       19.1804900377
H               -26.9224509407       74.1745450385       21.8262510550
H               -29.7915758470       75.3948247205       20.0697089043
H               -30.4267041571       76.1561471445       21.4681140051
H               -27.8420316361       75.1869554493       23.6347185916
H               -29.3564050962       75.9830638701       23.4913214777
H               -12.4373549929       82.7558909644        5.7975929852
H               -12.8124116050       80.7253190507        2.9142753216
H                -7.4225816492       80.3129312260       11.7608549857
H               -27.6923204884       70.2732280139       16.5254376141
