 156 
 
N                12.9189637747       35.4574233550       17.5416325468
C                11.9773884216       34.5332402231       18.1822325064
C                10.5896438804       35.1563001813       18.2582292726
O                 9.5676490254       34.4681788095       18.1825082513
C                12.4901326309       34.2379041965       19.6218649753
C                13.7301534669       33.3574655989       19.5215866124
C                13.4954775742       31.8694458736       19.3864124477
N                13.0762356020       31.3041716267       20.6634748940
C                13.0383627638       30.0027148849       20.9257321146
N                13.6054260252       29.1095566104       20.1272425329
N                12.3751112182       29.5787002138       22.0076102563
H                13.7385773004       35.7715078812       18.0467861580
H                11.9073080802       33.6169985478       17.5895033221
H                12.7173053547       35.1876697099       20.0996456652
H                11.6959249270       33.7456319546       20.1799591172
H                14.3304842235       33.6811649209       18.6748377947
H                14.3464762813       33.5104967433       20.4094253502
H                12.7309885209       31.6583145929       18.6319738101
H                14.4325682401       31.4062274820       19.0789119820
H                12.5169865801       31.9195460044       21.2390538825
H                14.1209538655       29.3468779687       19.2874666496
H                13.5977549413       28.1381036363       20.3919788504
H                12.0309566414       30.2424570609       22.6814625616
H                12.4264483821       28.6140909799       22.2922036013
N                 5.3206892613       32.2222471116       19.4636488871
C                 5.5751181174       31.1987645123       20.4894343050
C                 5.8863979050       29.8507559614       19.8294970367
O                 5.3862654058       29.4596175777       18.7951578957
C                 4.3557793215       30.9686102382       21.3831696535
H                 4.5756222726       32.8952808113       19.6026186518
H                 6.4367931343       31.5122794791       21.0883285829
H                 4.6061221518       30.2471977020       22.1556967010
H                 4.0488980135       31.8971805313       21.8567254498
H                 3.5267113584       30.5736280710       20.8002391100
N                 6.7133922597       29.0561328901       20.5228840296
C                 7.0794604184       27.7653493287       19.9476761216
C                 5.8806450610       26.8644920441       19.6890816977
O                 5.8323858542       26.1411499924       18.6941464492
C                 8.0714501596       27.0601232180       20.8923838484
O                 9.2354469641       27.8685139865       20.9607821084
C                 8.4745074325       25.7079312929       20.3522055009
H                 7.0737397813       29.3149014906       21.4363288477
H                 7.5593539849       27.9357735237       18.9764109118
H                 7.6133196830       26.9596044951       21.8812742262
H                 9.0585155784       28.6315078433       21.5273045435
H                 9.1895485309       25.2514403068       21.0310733793
H                 7.6173613704       25.0501234180       20.2630530188
H                 8.9427394135       25.8215390035       19.3800602634
N                 4.9532697255       26.8651047330       20.6445511880
C                 3.6427530546       26.2282749660       20.4422605600
C                 2.7272828983       27.2245014333       19.6889017627
O                 2.3671575755       28.2728081525       20.2358576385
C                 2.9947059310       25.9395678903       21.7837850671
C                 1.7981470269       25.0439240070       21.5826406748
O                 1.0930682898       25.0349813878       20.5672106862
N                 1.5343311357       24.2456654440       22.6160225529
H                 5.0195763287       27.5137488733       21.4276829628
H                 3.7945665382       25.3224745084       19.8592552671
H                 3.7113679475       25.4633541933       22.4504616464
H                 2.6688350005       26.8819445691       22.2320259376
H                 0.7559680892       23.6031651837       22.5664923102
H                 2.1056505334       24.2469902124       23.4449272465
N                 2.3591115725       26.8967367103       18.4525221689
C                 1.5359084544       27.8605817804       17.7317227175
C                 0.2243321910       28.2078737509       18.4496825274
O                -0.3452474078       29.2880960865       18.2154666192
C                 1.2249936620       27.1941718116       16.3829482404
C                 2.4343281245       26.3005652600       16.1696959577
C                 2.7061905403       25.7756466044       17.6010093020
H                 2.0990422863       28.7902680010       17.5893286315
H                 0.3279508969       26.5805886525       16.4760248434
H                 1.0604524632       27.9251232645       15.5942437008
H                 2.2371783726       25.4817294179       15.4834801324
H                 3.2860578945       26.8799773331       15.8190133743
H                 2.0601186651       24.9211008877       17.8205491871
H                 3.7581578228       25.5159312035       17.7300168018
N                -0.2888565531       27.2659948028       19.2387398780
C                -1.5294886668       27.5696530701       19.9926127882
C                -1.3701653863       28.7869214611       20.9422130403
O                -2.3422663689       29.4576753931       21.2594569767
C                -1.9107928784       26.3404736078       20.8223188855
C                -3.1531125685       26.5496608298       21.6910891759
C                -4.3812836977       26.4233475103       20.8074149397
C                -3.2010820747       25.5468423139       22.8732430001
H                 0.2121866511       26.4159477924       19.4761121974
H                -2.3141931069       27.8224231057       19.2747782027
H                -2.0772523129       25.5014072258       20.1460062980
H                -1.0579272735       26.0959108432       21.4603738048
H                -3.1424567167       27.5474541149       22.1332284932
H                -5.2749476509       26.5904720212       21.4011748919
H                -4.3558260527       27.1365727929       19.9912306020
H                -4.4400081009       25.4223192321       20.3845392369
H                -4.0987777840       25.7155504009       23.4595522919
H                -3.2120379722       24.5236884937       22.5053996487
H                -2.3389559311       25.6817602081       23.5203327549
N                -0.1430335491       29.0395631667       21.3978105424
C                 0.1573293046       30.1799533163       22.2600951238
C                 0.6622920122       31.4069266288       21.4985755353
O                 1.0355813005       32.4100477034       22.1144098896
C                 1.1990001347       29.7400461053       23.2987783942
H                 0.6756984392       28.5842353908       21.0003080884
H                -0.7790967048       30.4660340981       22.7521822453
H                 1.4691470771       30.5916536855       23.9151962055
H                 0.7696733393       28.9559427678       23.9128441344
H                 2.0831310748       29.3753729277       22.7821051100
N                 0.7605875202       31.2970332003       20.1725501873
C                 1.3226761530       32.3645991910       19.3598580753
C                 0.2503119150       33.3814691446       18.9443147622
O                -0.9554017042       33.1581759946       18.9843005855
C                 2.0386748375       31.7846578373       18.1263315228
O                 1.0686835278       31.3699017733       17.1929626446
H                 0.2760453765       30.5542433246       19.6820251223
H                 2.0408712189       32.8922958461       19.9963675085
H                 2.6175051072       32.5681324652       17.6361213086
H                 2.6988306670       30.9641810227       18.4315100323
H                 0.5257778222       30.6399424994       17.5554155104
N                 2.5701809944       22.1591774556       17.6850458084
C                 3.9471575239       22.3771722647       18.1490397838
C                 4.9851943015       21.4872016157       17.4480871738
O                 6.1291046127       21.8572404781       17.1721884319
C                 3.9866472462       22.2693333684       19.6894108624
C                 3.7450773188       20.8257760053       20.1335272963
C                 5.3384629622       22.7497102149       20.2056562984
H                 1.8567299030       21.9005227838       18.3558695743
H                 4.2251159027       23.4018129647       17.8644356992
H                 3.1776970141       22.8991042182       20.0701250128
H                 3.6701022294       20.7729855570       21.2162438636
H                 2.8229314120       20.4295541177       19.7111991492
H                 4.5597618306       20.1813130960       19.8128391917
H                 5.3453422750       22.7300302167       21.2908937370
H                 6.1240686616       22.0939560928       19.8436854518
H                 5.5449034766       23.7579548744       19.8567612264
O                 2.4932917645       34.8552823483       22.1758790111
H                 2.0261383962       35.4647911652       22.7518301325
H                 1.9893420728       34.0257747588       22.1981794158
O                 0.1811858842       22.7422319803       19.3305939362
H                 0.4518768758       23.5339793462       19.8346056294
H                -0.3420484993       23.1017583325       18.6033609977
O                 7.8456127117       29.9060536919       23.0065848315
H                 8.3521457546       29.6724667233       23.7931973484
H                 7.1560947500       30.5054874055       23.3018487576
O                 5.1966754915       28.0251147138       23.3335088335
H                 5.9546034227       27.7363726407       23.8503542464
H                 4.4204502525       27.8282687194       23.8802118619
O                -3.4987515563       33.3093100337       22.4844188260
H                -2.7833180870       32.6784805572       22.3860111993
H                -3.2702199193       34.0583430536       21.9199773962
O                 3.0074933572       27.2535602740       25.1429105802
H                 3.2661111621       26.8473328774       25.9757687576
H                 2.1969862712       27.7364054222       25.3139349788
H                13.2530636318       35.0777683188       16.7971600228
H                10.4909606425       36.1448882552       18.3720503543
H                 6.0572439716       32.7277858221       19.3544803432
H                 0.5200676261       34.2873189503       18.6177141102
H                 2.2576961762       22.9135893995       17.3066070983
H                 4.7478254344       20.5508680408       17.1893682967
