 327 
 
N                15.3232251562       21.2493266103       -8.1075508108
C                15.8310997004       21.3692877577       -9.4839430632
C                17.3335870647       21.0154867268       -9.4530267838
O                17.9433860907       21.1016310738       -8.3919978915
H                14.6696465413       22.0297255007       -7.7247090260
H                14.8716698929       20.3452185175       -7.9390490370
H                16.1789202374       21.2912700246       -7.5093342708
H                15.2985825006       20.7238457078      -10.1789891724
H                15.7503878328       22.4023139224       -9.8287852915
N                17.8608480690       20.6295831237      -10.6100125533
C                19.2679119058       20.3479560637      -10.7426084401
C                19.6244845975       18.8835141173      -10.4573249349
O                18.8936209441       18.1382046129       -9.8249985947
H                17.3168484735       20.6761728929      -11.4724442304
H                19.5941843326       20.6206959116      -11.7468087983
H                19.8194882370       20.9406521897      -10.0010997511
N                20.7934664245       18.5021461327      -10.9966588818
C                21.4696137526       17.2780753507      -10.6322616063
C                22.1903986661       17.5006542002       -9.2879825782
O                22.3410760697       18.6211760838       -8.8256115676
C                22.5334252167       16.9008713916      -11.6745674968
C                22.0457629248       16.2630439266      -12.9372870526
C                21.0795356488       15.3143169097      -13.1153542700
C                22.6589436835       16.4612892429      -14.2207485296
N                21.0336719663       14.9226678271      -14.4293402629
C                21.9871596078       15.6041770904      -15.1298875048
C                23.7286297531       17.2394646124      -14.6711733964
C                22.3613418494       15.5308297368      -16.4653439126
C                24.0903476029       17.1593058767      -15.9968923317
C                23.4121046394       16.3200364902      -16.8850668169
H                21.3835695115       19.2120733901      -11.4058961725
H                20.7167968427       16.4935010608      -10.5136549916
H                23.0977937700       17.8013692652      -11.9285299385
H                23.2446570627       16.2173078517      -11.1993265657
H                20.4176882618       14.8699855091      -12.3997089457
H                20.3835664127       14.2556323548      -14.8109102711
H                24.2741437736       17.8761802395      -13.9895147908
H                21.8424306057       14.8771064892      -17.1502332806
H                24.9187999970       17.7493405435      -16.3599809560
H                23.7265951849       16.2848147395      -17.9173728059
N                22.6540041452       16.3710076990       -8.7340249486
C                23.4523712531       16.3335091030       -7.5319156371
C                24.8185321919       15.7378199105       -7.8720512852
O                24.9407503473       14.7035097861       -8.5175929025
C                22.7531379193       15.5007665369       -6.4417331741
C                23.5565479931       15.5646005444       -5.1429487270
C                21.3381175316       16.0293689394       -6.2279285651
H                22.4695833801       15.4805785284       -9.1723295612
H                23.5760025470       17.3641276831       -7.1852104904
H                22.7068582204       14.4623325853       -6.7889270894
H                23.0524631539       15.0151787118       -4.3530545986
H                24.5531281799       15.1518127691       -5.2821282033
H                23.6667765819       16.5975742904       -4.8173666038
H                20.8454195840       15.4630982203       -5.4443318858
H                21.3823724787       17.0737623025       -5.9275784567
H                20.7451460017       15.9467083083       -7.1358996901
N                25.8521893358       16.4612488404       -7.4363478377
C                27.2089629007       16.0419179341       -7.6676448723
C                27.6542413898       14.9765185711       -6.6522344550
O                27.3769073168       15.0558972512       -5.4605911968
C                28.1245510309       17.2602022798       -7.4145654306
O                29.4893819195       16.9109783441       -7.3983589358
H                25.6812016579       17.2600936301       -6.8165003087
H                27.2941916862       15.6536071031       -8.6880397549
H                27.9120332279       18.0315311119       -8.1576279250
H                27.8785232083       17.6700185169       -6.4310195347
H                29.8009419330       16.9060918888       -8.3158751942
N                29.3293454844       16.6937065276       -3.5361187782
C                28.5015355094       17.2275258722       -2.4844241634
C                27.7898272128       16.1154572669       -1.7135319537
O                27.5807598830       16.2448650142       -0.5112990627
C                27.5645478871       18.3097966381       -3.0186651520
C                26.3643652758       17.7525984383       -3.7658293992
C                25.6037336886       18.9111462589       -4.5051762147
O                25.3453318541       19.9252341102       -3.8348939343
O                25.3257183618       18.7161295422       -5.7129852652
H                29.0173861863       16.8002710878       -4.4891598355
H                29.1807565254       17.6816961387       -1.7479797937
H                27.2041853976       18.9193602299       -2.1889557642
H                28.1403545021       18.9692045271       -3.6742018743
H                26.6484334498       16.9991876013       -4.5011854227
H                25.6580840183       17.2967619245       -3.0696685030
N                27.4993085046       15.0070708396       -2.3985744135
C                26.9975536373       13.8055725832       -1.7679003187
C                28.0390273503       13.2023993582       -0.8244939691
O                27.7104066273       12.8279769998        0.3001696946
C                26.6029181302       12.7774506162       -2.8298450998
C                25.9413420708       11.5670253270       -2.2310131873
C                24.6383934670       11.6482506923       -1.7450331862
C                26.6194086294       10.3588263756       -2.1308697479
C                24.0334868422       10.5522001884       -1.1554519946
C                26.0068128886        9.2513952804       -1.5714428037
C                24.7170441655        9.3505520455       -1.0734422548
H                27.6046283944       14.9959848055       -3.4067013690
H                26.1300032800       14.0622940614       -1.1458386637
H                25.9187650130       13.2752176957       -3.5209217133
H                27.4982327910       12.4842943211       -3.3807221145
H                24.1009843241       12.5812921311       -1.8378104946
H                27.6265820630       10.2737273445       -2.5133448580
H                23.0326118622       10.6308221023       -0.7612962151
H                26.5353451596        8.3105306202       -1.5381939936
H                24.2447125110        8.4871244964       -0.6284421269
O                13.7538491489       22.9772609036       -6.7993501637
H                13.5483104035       22.4999071412       -5.9735315519
H                12.9113312320       23.1815915680       -7.2164069988
N                27.8900955768       11.3027703016      -10.9966588818
C                26.4919455195       11.3292449298      -10.6322616063
C                26.3243120008       10.5937374593       -9.2879825782
O                27.2193737157        9.9029860582       -8.8256115676
C                25.6333715765       10.5965591566      -11.6745674968
C                25.3248279346       11.3378008223      -12.9372870526
C                24.9863198746       12.6489416977      -13.1153542700
C                25.1899230352       10.7076480500      -14.2207485296
N                24.6700736610       12.8844853531      -14.4293402629
C                24.7835341752       11.7179862017      -15.1298875048
C                25.3289996391        9.3921850549      -14.6711733964
C                24.5329223828       11.4306085517      -16.4653439126
C                25.0787212127        9.1190075758      -15.9968923317
C                24.6910140851       10.1260179054      -16.8850668169
H                28.2098590731       10.4367624087      -11.4058961725
H                26.1888927082       12.3734906431      -10.5136549916
H                26.1310413344        9.6575527155      -11.9285299385
H                24.6857722629       10.3223960799      -11.1993265657
H                24.9324412875       13.4442840484      -12.3997089457
H                24.4174567736       13.7810110138      -14.8109102711
H                25.6076545368        8.6013982415      -13.9895147908
H                24.2262370652       12.2068604948      -17.1502332806
H                25.1754800262        8.1065294233      -16.3599809560
H                24.5032658815        9.8712719791      -17.9173728059
N                25.1142066939       10.7570665877       -8.7340249486
C                24.6825484032       10.0844096886       -7.5319156371
C                23.4835859604        9.1991242062       -7.8720512852
O                22.5267380396        9.6104352410       -8.5175929025
C                24.3109888530       11.1063348019       -6.4417331741
C                23.9645656883       10.3786442646       -5.1429487270
C                25.4762821559       12.0674772033       -6.2279285651
H                24.4352827945       11.3619942405       -9.1723295612
H                25.5132746282        9.4620325574       -7.1852104904
H                23.4348185203       11.6656311727       -6.7889270894
H                23.7407948435       11.0899054573       -4.3530545986
H                23.1087908951        9.7219743936       -5.2821282033
H                24.8040328994        9.7666966335       -4.8173666038
H                25.2322263016       12.7773015018       -5.4443318858
H                26.3586258664       11.5069546133       -5.9275784567
H                25.7011817145       12.6223359275       -7.1358996901
N                18.1069386395        8.7565970900      -10.9966588818
C                18.8289413688        9.9541932439      -10.6322616063
C                18.2757899740       10.4671218649       -9.2879825782
O                17.2300508555       10.0373513823       -8.8256115676
C                18.6237038477       11.0640829762      -11.6745674968
C                19.4199097815       10.9606687753      -12.9372870526
C                20.7246451175       10.5982549170      -13.1153542700
C                18.9416339221       11.3925762314      -14.2207485296
N                21.0867550136       10.7543603441      -14.4293402629
C                20.0198068579       11.2393502322      -15.1298875048
C                17.7328712487       11.9298638569      -14.6711733964
C                19.8962364087       11.6000752359      -16.4653439126
C                17.6214318252       12.2832000717      -15.9968923317
C                18.6873819163       12.1154591287      -16.8850668169
H                17.1970720563        8.9126777254      -11.4058961725
H                19.8848110899        9.6945218205      -10.5136549916
H                17.5616655364       11.1025915436      -11.9285299385
H                18.8600713153       12.0218095927      -11.1993265657
H                21.4403710915       10.2472439667      -12.3997089457
H                21.9894774546       10.5248701557      -14.8109102711
H                16.9087023304       12.0839350434      -13.9895147908
H                20.7218329699       11.4775465403      -17.1502332806
H                16.6962206176       12.7056435575      -16.3599809560
H                18.5606395745       12.4054268057      -17.9173728059
N                19.0222898018       11.4334392377       -8.7340249486
C                18.6555809845       12.1435947327       -7.5319156371
C                18.4883824886       13.6245694076       -7.8720512852
O                19.3230122540       14.2475684971       -8.5175929025
C                19.7263738685       11.9544121855       -6.4417331741
C                19.2693869595       12.6182687153       -5.1429487270
C                19.9761009533       10.4646673816       -6.2279285651
H                19.8856344663       11.7189407554       -9.1723295612
H                17.7012234656       11.7353532838       -7.1852104904
H                20.6488239002       12.4335497663       -6.7889270894
H                19.9972426435       12.4564293552       -4.3530545986
H                19.1285815659       13.6877263616       -5.2821282033
H                18.3196911596       12.1972426004       -4.8173666038
H                20.7128547552       10.3211138021       -5.4443318858
H                19.0495022958        9.9807966085       -5.9275784567
H                20.3441729247        9.9924692886       -7.1358996901
N                17.3450460855       14.1580282880       -7.4363478377
C                17.0298105206       15.5426941156       -7.6676448723
C                17.7298341895       16.4610162804       -6.6522344550
O                17.7997572725       16.1811485878       -5.4605911968
C                15.5169512631       15.7264745229       -7.4145654306
O                15.1369726187       17.0830647121       -7.3983589358
H                16.7387200430       13.6105262204       -6.8165003087
H                17.3234831720       15.8106598245       -8.6880397549
H                14.9552198013       15.1567642907       -8.1576279250
H                15.2850539022       15.3085000600       -6.4310195347
H                14.9854244063       17.3553268262       -8.3158751942
N                18.0649746215       17.6670828160       -7.1274374974
C                18.5599696102       18.6858143483       -6.2325362542
C                17.5731978556       18.9437664103       -5.0971126415
O                17.9459816471       19.2247732785       -3.9659988736
H                18.2089241844       17.7957871954       -8.1245875197
H                19.5223706035       18.4119388302       -5.7890084802
H                18.6800156033       19.6142458987       -6.7979785046
N                16.2777722143       18.9475759003       -5.4572200456
C                15.2400409117       19.2576205589       -4.4890368570
C                15.3601499941       18.3648629324       -3.2556495967
O                15.3752197727       18.7926689625       -2.1087637078
C                13.8563102403       19.0846518397       -5.1259880589
C                12.7351204865       19.3196986481       -4.1126877898
C                12.6416503239       20.8201085639       -3.7055139085
O                13.1383884726       21.6377278205       -4.5334288916
O                12.0887187568       21.1036662269       -2.6330113658
H                15.9916311359       18.4541052920       -6.3000585926
H                15.3703929045       20.2904061803       -4.1466198585
H                13.7380874985       19.8250625896       -5.9153136587
H                13.7745515087       18.0812752920       -5.5461440895
H                11.7710106401       19.0466384437       -4.5475559590
H                12.8594876665       18.7315794576       -3.2023014634
N                17.7808415915       16.3115643316       -2.3985744135
C                19.0722470378       16.4777809983       -1.7679003187
C                19.0738735170       17.6813103037       -0.8244939691
O                19.5624431526       17.5839275885        0.3001696946
C                20.1599445329       16.6500776075       -2.8298450998
C                21.5389916125       16.6823485780       -2.2310131873
C                22.1201226846       15.5133493047       -1.7450331862
C                22.2462893179       17.8736709190       -2.1308697479
C                23.3717835771       15.5375100527       -1.1554519946
C                23.5116506497       17.8968629928       -1.5714428037
C                24.0706627337       16.7303121310       -1.0734422548
H                17.7377824337       16.4083170489       -3.4067013690
H                19.2836948946       15.5980996107       -1.1458386637
H                20.0709421555       15.8087000881       -3.5209217133
H                19.9661680014       17.5720209956       -3.3807221145
H                21.5807896673       14.5814186153       -1.8378104946
H                21.8164005238       18.7884582140       -2.5133448580
H                23.8041324924       14.6314159371       -0.7612962151
H                24.0621972114       18.8250176963       -1.5381939936
H                25.0545787528       16.7529746938       -0.6284421269
N                30.8363435301       18.4608200829      -19.9745371030
C                30.3911347725       17.6938485901      -18.8339266660
C                31.5161046667       16.7948103690      -18.3009308335
O                31.7545900982       16.7362958930      -17.0935010546
C                29.1547409796       16.8758832098      -19.1864405427
C                27.9457886825       17.7468780785      -19.5601950748
C                26.7565947488       16.8347072668      -19.8544126669
C                27.5858421076       18.7279512327      -18.4463684021
H                30.3908164754       18.2920471289      -20.8706737619
H                30.1654653638       18.3841254623      -18.0100623777
H                29.4072616130       16.2056727356      -20.0111726612
H                28.9003041585       16.2465419330      -18.3297752870
H                28.1956404200       18.3047917932      -20.4671709608
H                25.9196350638       17.4040683934      -20.2489044246
H                27.0333581510       16.0669543671      -20.5733123088
H                26.4396241983       16.3321661593      -18.9427846636
H                26.6198175778       19.1803383328      -18.6521579330
H                27.5266204922       18.2043724704      -17.4936754093
H                28.3253456977       19.5183130365      -18.3656427133
N                31.3226802879       15.2598284725      -14.4585117728
C                30.1669135326       14.4414635411      -14.7312028266
C                30.5086931377       13.3544513873      -15.7966195308
O                31.6349617889       13.3714952336      -16.3243587722
C                29.0256060535       15.2896166377      -15.3067048161
C                28.6639514438       16.4637714848      -14.4656512270
C                29.1572886378       17.7289033954      -14.6091924343
C                27.7551521494       16.5071081714      -13.3631905339
N                28.5977746592       18.5687067837      -13.6892537708
C                27.7502904969       17.8486382695      -12.8977430698
C                26.9653380303       15.5516949688      -12.7180889013
C                26.9703680617       18.2414203945      -11.8151482493
C                26.1853063964       15.9548269246      -11.6568937036
C                26.1869921710       17.2820606573      -11.2133337625
O                29.5694671133       12.5687592676      -16.0747114773
H                31.5458894147       15.9316911320      -15.1842553701
H                29.8632997704       13.9417761730      -13.8057769334
H                29.3594390784       15.6356727965      -16.2906273452
H                28.1732658009       14.6227908290      -15.4522422285
H                29.8739587311       18.0764287895      -15.3266757899
H                28.8457160145       19.5342036589      -13.5561405841
H                26.9827741501       14.5238845953      -13.0501234056
H                26.9723344441       19.2621869240      -11.4656429027
H                25.5832471470       15.2350469930      -11.1199294255
H                25.5628234068       17.5497298424      -10.3718747160
N                13.1777888952       20.7878459835      -14.5616734758
C                14.1856037959       21.2771286031      -13.6615989782
C                15.5556858710       20.6069112349      -13.7348165058
O                16.4683610654       21.0540276346      -13.0384576441
H                13.1632690484       21.1806890316      -15.4934311736
H                14.3381912270       22.3442494301      -13.8384278769
H                13.8134158391       21.1295563708      -12.6413103087
N                15.6502611687       19.4963226077      -14.4585117728
C                16.9368693665       18.9045817025      -14.7312028266
C                17.7073597034       19.7440775999      -15.7966195308
O                17.1294649739       20.7109329402      -16.3243587722
C                16.7730009781       17.4921038837      -15.3067048161
C                15.9369803574       16.5918243808      -14.4656512270
C                14.5946753867       16.3865009681      -14.6091924343
C                16.3538493331       15.7831127616      -13.3631905339
N                14.1471413075       15.4820459548      -13.6892537708
C                15.1944810144       15.1081373979      -12.8977430698
C                17.5761684972       15.5768202715      -12.7180889013
C                15.2442829336       14.2363136936      -11.8151482493
C                17.6170617993       14.6997270828      -11.6568937036
C                16.4668007827       14.0375701401      -11.2133337625
O                18.8574020508       19.3235300626      -16.0747114773
H                14.9568064744       19.3536960521      -15.1842553701
H                17.5214182023       18.8914881555      -13.8057769334
H                16.3063910410       17.6081836845      -16.2906273452
H                17.7766591946       17.0873684766      -15.4522422285
H                13.9353745202       16.8333927780      -15.3266757899
H                13.1870258087       15.2140210294      -13.5561405841
H                18.4575603310       16.1058255809      -13.0501234056
H                14.3592899965       13.7276333659      -11.4656429027
H                18.5414391300       14.5382184441      -11.1199294255
H                16.5470768507       13.3631895416      -10.3718747160
H                28.1876316310       14.1874267611       -6.9569129184
H                30.1379133989       17.0881847139       -3.5115243048
H                28.9896047073       13.1116563412       -1.1214255998
H                28.0552794983       11.9487111381      -11.6012039238
H                23.4616277387        8.2475980098       -7.5652684076
H                18.5837478526        8.2905731995      -11.6012039238
H                15.4319062100       17.3730600279       -3.3613758662
H                17.4655610333       15.4867074452       -2.2247662243
H                18.6771705964       18.5499059516       -1.1214255998
H                30.7101026189       19.3374994201      -19.8148606429
H                32.0635012122       16.2494481404      -18.9357040698
H                31.1870504637       15.7288863539      -13.7024765523
H                13.2815185324       19.9011145411      -14.6754606077
