 460 
 
N                34.3080674670       24.5400835181       83.6723702611
C                34.5140080262       25.1462587018       82.3713083203
C                33.5869354794       26.3435343175       82.1538919907
O                32.9541519548       26.8550878434       83.0607948651
C                34.2404328429       24.0009948523       81.3921139835
C                34.9460732024       24.0824614255       80.0355334550
C                32.7195431822       23.7800906026       81.3103264734
C                36.4374956072       24.3677529025       80.1836355282
H                33.6067863264       23.8150183501       83.7033679258
H                35.5462366627       25.5066033087       82.3449673694
H                34.6789957558       23.1213531804       81.8683766140
H                34.8336796437       23.1018272442       79.5688009147
H                34.4893357743       24.7932409007       79.3446417009
H                32.3212899766       24.1440100480       80.3681540204
H                32.5163060186       22.7182765478       81.4139561172
H                32.1973542798       24.3025651488       82.1096385412
H                36.9380150717       24.1895517517       79.2337966560
H                36.6264573473       25.3989438151       80.4679960802
H                36.8714035051       23.7061009051       80.9287386736
N                33.5319903826       26.8123615585       80.8917266112
C                32.4074940638       27.6061596666       80.4579666619
C                31.6096355739       26.8131550374       79.4282449819
O                32.0174121995       25.7642442685       78.9579854403
H                33.9489717839       26.2543699891       80.1603013012
H                31.7936867325       27.8403117074       81.3315113133
H                32.7584545881       28.5382581574       80.0027664511
N                30.4525948826       27.3688401418       79.0480142924
C                29.7429507730       26.8736461986       77.8874916648
C                29.2949768879       28.1250210388       77.1213703333
O                29.0920955983       29.1743972974       77.7366361362
C                28.6014112879       25.9154841750       78.2968625859
O                28.4675964169       24.9154905069       77.3125163419
H                30.1615055100       28.2748182173       79.3932912089
H                30.4572189275       26.2906236669       77.2942748330
H                28.8720397444       25.4792684642       79.2646645933
H                27.6609572635       26.4684127355       78.4222433185
H                27.9755379923       24.1704955031       77.6729948296
N                29.1938403800       28.0356846488       75.8071721179
C                28.9884978605       29.1790593914       74.9258280927
C                28.7432197019       30.5062646585       75.6416420312
O                29.6766747168       31.2797609670       75.7816184187
C                27.9279098988       28.6966001358       73.9097925998
C                27.7513234179       27.2012143293       74.2184801544
C                29.0211582039       26.8471302365       74.9954207317
H                29.9466599565       29.3348889657       74.4110077427
H                26.9902499473       29.2410390529       73.9770594066
H                28.3125899863       28.8361686123       72.9017906066
H                26.8859717030       27.0334383516       74.8574760713
H                27.6386787782       26.5989965599       73.3224781833
H                28.9151577370       25.9514669356       75.5970243793
H                29.8775766138       26.7394923358       74.3248551026
N                27.4664435699       30.7701435844       75.9675987101
C                26.9298869600       32.0121731411       76.5296311357
C                26.5975103643       32.9687161239       75.3611512279
O                27.2530993202       33.9512998448       75.0739614469
C                27.8006400209       32.6610842585       77.6383783456
O                28.9155167178       33.3964509868       77.2256071970
H                26.8006397559       30.0193844705       75.8681483020
H                25.9918299161       31.7463322447       77.0252674456
H                27.1604043432       33.3613059007       78.1806733803
H                28.1067351710       31.8594962774       78.3237708752
H                29.4590942481       32.8016269906       76.6657530250
N                25.5444459517       32.5744177483       74.6135077198
C                25.0917321221       33.4904143167       73.5748863344
C                24.7771401976       34.8309256626       74.2722365177
O                24.2116525935       34.8626131829       75.3520549484
C                23.9181797465       32.9303845424       72.7547295399
C                24.4174287842       31.8439143293       71.7996492365
C                22.7901237658       32.4068897427       73.6436176957
H                24.8520373334       31.9430852438       74.9858182715
H                25.9463277314       33.6497971646       72.9070539818
H                23.5271227755       33.7677142184       72.1671312320
H                23.5847521143       31.4411237456       71.2306044919
H                25.1461807836       32.2483919178       71.1027372443
H                24.8809387156       31.0344969607       72.3569971654
H                21.8855688346       32.2866250407       73.0529513428
H                23.0358000404       31.4344194562       74.0639320152
H                22.5767208654       33.1102082178       74.4460747135
N                25.2583763753       35.9168554578       73.6535634706
C                25.4544239125       37.1991494101       74.3195137453
C                24.1121981272       37.7034268669       74.8786193017
O                23.0727223265       37.5824903243       74.2411526888
C                26.0395110033       38.2121613928       73.3187083747
C                27.1564868458       39.1101034355       73.8583286695
C                28.3982950200       38.3470052446       74.3488019188
N                28.4357035180       38.2412267993       75.7999263490
C                28.7201522502       37.1700553702       76.5418748257
N                28.9279181472       35.9753460002       76.0119707930
N                28.7879255990       37.3102650661       77.8724865445
H                25.7379247188       35.7951791778       72.7726987560
H                26.1451021526       37.0299075409       75.1501218185
H                26.4451362042       37.6624883121       72.4668082835
H                25.2319304239       38.8423472198       72.9450481071
H                27.4594395538       39.7558533500       73.0341872905
H                26.7844864434       39.7681047648       74.6423190694
H                28.4277794340       37.3536451995       73.9049969194
H                29.2971504983       38.8834477728       74.0327444987
H                28.3813172212       39.1345470534       76.2725894444
H                28.6857865664       35.7737907350       75.0552198543
H                28.9787149265       35.1430928286       76.5975287391
H                28.8032055657       38.2207200751       78.3018012897
H                29.0720005454       36.5232814094       78.4333453192
N                24.1598125127       38.3428464966       76.0548224332
C                22.9452574051       38.8343881119       76.6851838818
C                21.9976958363       39.4944690429       75.7124065425
O                22.3663967644       40.3362713356       74.8932817797
C                23.4720768064       39.8387420283       77.7106578959
C                24.7060893388       39.1108635610       78.2320726596
C                25.2964465850       38.5021035645       76.9568988466
H                22.4215724642       38.0108269020       77.1899209141
H                23.7666414204       40.7586716970       77.2020651783
H                22.7403885217       40.0550097500       78.4865778930
H                25.4046245814       39.7782463116       78.7295789729
H                24.3985202025       38.3315910802       78.9300280618
H                26.0111704105       39.1984123874       76.5152612309
H                25.7698280268       37.5388082596       77.1588704952
N                17.5344559307       34.1477643192       80.8196076194
C                18.9136936848       34.0888715745       80.3842163440
C                19.7297711032       33.3285103749       81.4259168227
O                19.5993701507       33.5444035619       82.6235419568
C                19.5522619259       35.4874492817       80.2417125893
C                18.6225533348       36.5115493658       79.6000885778
C                19.4353209525       37.6992350906       78.9968688929
O                20.1519197971       37.4127302834       78.0090688368
O                19.3086024380       38.8241537803       79.5064728019
H                17.3519309605       34.5951610174       81.7104602799
H                18.9091811657       33.5829039898       79.4137185550
H                19.8506195418       35.8519003129       81.2280873361
H                20.4542348466       35.4007661629       79.6309312999
H                18.0788116107       36.0536308428       78.7698667532
H                17.9066728227       36.8978430059       80.3277421549
N                20.5875859208       32.4069627197       80.9740253774
C                21.5177027809       31.7795458527       81.8966641733
C                22.4484566900       32.8562751045       82.4700480590
O                22.8479499832       33.7977495777       81.7997430495
C                22.2940282022       30.6921778706       81.1517982595
C                23.2622171351       29.9633819267       82.0708795447
C                23.7939909988       28.6591399290       81.4710909437
N                24.5218261121       28.8402536330       80.2303109517
C                25.7754447924       29.2872674012       80.1137603136
N                26.4114921175       29.8552374921       81.1219817390
N                26.3484718139       29.2659618630       78.9013426703
H                20.8325741461       32.4044580076       79.9948560424
H                20.9390868474       31.3393113570       82.7148288658
H                21.5719216067       29.9803225481       80.7534159231
H                22.8421388701       31.1567106956       80.3302129346
H                24.0740643171       30.6416298951       82.3333386533
H                22.7412483711       29.6967265791       82.9930191469
H                24.4366802699       28.1562020781       82.1983120062
H                22.9573469709       27.9881662601       81.2695394217
H                24.0999802550       28.4106224887       79.4211273254
H                26.0569376365       29.8224083175       82.0623258067
H                27.3841841542       30.1143138928       81.0579217867
H                25.9096891794       28.7497657219       78.1551377449
H                27.3341959884       29.4808507465       78.7885433520
N                22.7998421728       32.6870652124       83.7476820815
C                23.7962357458       33.5574515760       84.3473293903
C                25.0364819200       33.4656385513       83.4647597810
O                25.4798846037       32.3663156463       83.1184953420
C                24.0812335089       33.0673979683       85.7671719268
C                25.2053163940       33.7430550543       86.5058034598
C                25.2469709403       35.1204085134       86.7053690225
C                26.1583633398       32.9629829370       87.1478198880
C                26.2404667037       35.7105688676       87.4648987602
C                27.1154546693       33.5338224281       87.9682813749
C                27.1769823726       34.9157413529       88.1175954987
O                28.1764846607       35.5045369853       88.8415129081
H                22.3968350180       31.9523465433       84.3167657981
H                23.4210209784       34.5812643129       84.3502541181
H                23.1686128198       33.2124480009       86.3525647486
H                24.2812926228       31.9955080730       85.7189481006
H                24.4590646231       35.7459113476       86.3148900640
H                26.1318338939       31.8879351310       87.0505047074
H                26.2572105826       36.7760532992       87.6143537344
H                27.7955008226       32.8901114946       88.5091887288
H                28.5805247201       34.8471663244       89.4258385377
N                25.6403522884       34.5935293205       83.1096198896
C                26.7586048342       34.5082645613       82.1811907846
C                27.8453566035       33.5373253405       82.6595197532
O                28.4192409692       32.8097302704       81.8671809117
C                27.2581182176       35.9551793838       82.0321132661
C                26.5497966574       36.7274991482       83.1473525653
C                25.2362132370       35.9743135424       83.3105963110
H                26.4100789128       34.1038375239       81.2237884701
H                28.3416992230       36.0124906707       82.1082368982
H                26.9682782212       36.3433384663       81.0576859645
H                27.1208896107       36.6777540715       84.0739272149
H                26.3948042585       37.7708581418       82.8876247313
H                24.8019507230       36.1294850234       84.2929489903
H                24.5115424013       36.2535029469       82.5388534753
N                27.6534024241       30.9264317381       84.5847895301
C                27.2566927925       29.5981546556       85.0065082447
C                28.0219969785       28.5314452140       84.2021395530
O                28.1501175455       28.6138107621       82.9943706906
C                25.7326237461       29.4958521631       84.8830611238
C                25.2194328676       28.0654949654       84.8818327981
C                25.4970637218       27.3689062492       86.2253419395
O                25.7330928497       26.1445703323       86.1881070255
O                25.4771015188       28.0606799351       87.2692282103
H                27.0039285061       31.4798136011       84.0343108950
H                27.5451227688       29.4839176956       86.0602438493
H                25.2957616637       30.0046279403       85.7460159384
H                25.4060135971       30.0177084226       83.9843497332
H                24.1350205374       28.0762545646       84.7451010138
H                25.6688081372       27.4692585501       84.0849041876
N                28.5004108562       27.4968621669       84.9220606141
C                29.4074291598       26.5162202345       84.3668250110
C                28.9387499326       25.0561012754       84.3838938432
O                29.6200960947       24.1967961165       83.8324886501
C                30.8042768449       26.5212762356       85.0633020665
O                30.8093190640       25.7050779961       86.2138922184
C                31.2878601069       27.9332897171       85.3440296409
H                28.3828917767       27.5060202441       85.9239860374
H                29.5573268795       26.8046054283       83.3211386077
H                31.4991868406       26.0402640867       84.3711365617
H                30.4472615531       26.2089943178       86.9545100655
H                32.3332305198       27.9026014273       85.6365659174
H                31.2049657807       28.5426205322       84.4511155510
H                30.7063283036       28.4034815316       86.1327499492
N                27.8202974422       24.7636894478       85.0407238079
C                27.3037325397       23.4170132958       85.1241020374
C                26.0651653387       23.2277578126       84.2434046716
O                25.9264542616       22.2256685904       83.5534545007
C                26.9593357448       23.0418691301       86.5766064862
C                26.3615859607       21.6603869592       86.6688817172
C                27.0775219803       20.5406485013       86.2585577777
C                25.0738946023       21.4767170240       87.1549022898
C                26.5142263770       19.2775379376       86.3081480550
C                24.5192774904       20.2102880666       87.2356090049
C                25.2323769143       19.1064314769       86.8036560655
H                27.2607723830       25.4766493819       85.4998278873
H                28.0834398689       22.7479980379       84.7529258695
H                27.8758602892       23.0923760989       87.1692671667
H                26.2619328934       23.7806166348       86.9752172544
H                28.0870638346       20.6572537566       85.8963946933
H                24.4992686548       22.3317234416       87.4847643158
H                27.0658756048       18.4222041157       85.9478872132
H                23.5224035162       20.0895217581       87.6364420454
H                24.7935092825       18.1223961511       86.8634379363
N                25.1709578636       24.2085782727       84.3010111902
C                23.9260236851       24.1091005318       83.5778438451
C                24.1098284457       24.3889203967       82.0823851082
O                24.9027755808       25.2241856766       81.6487139798
C                22.9273723330       25.1363764326       84.1148256203
C                22.4742312653       24.8475825745       85.5493646450
C                22.0588799958       26.1447510438       86.2359291032
C                21.3251260072       23.8450798656       85.5542679842
H                25.3425381762       25.0117425215       84.9023122127
H                23.5617078132       23.0846490624       83.7099668230
H                23.4182812910       26.1084541581       84.0686011007
H                22.0600070109       25.1777549501       83.4537715223
H                23.3205741074       24.4222686297       86.1019077840
H                21.7334690165       25.9513784759       87.2533750544
H                22.8946140422       26.8387826390       86.2844866652
H                21.2478338280       26.6178257266       85.6897154634
H                21.0267333095       23.6106108463       86.5735207183
H                20.4670732116       24.2501321172       85.0221628811
H                21.6259057084       22.9164122142       85.0757603623
N                23.2894809302       23.7203765213       81.2710620745
C                23.1917449317       24.1028311134       79.8663503606
C                22.4195679862       25.4262483622       79.7393601754
O                21.8982455434       25.9800615650       80.6937237688
C                22.4141553825       22.9586997085       79.2060558819
C                21.5088830288       22.4842481805       80.3439174642
C                22.3541333911       22.6643972347       81.6149469237
H                24.2055257227       24.2327581820       79.4796924234
H                21.8440144864       23.2944826079       78.3436477619
H                23.0996446028       22.1652542789       78.9103696557
H                20.6298306040       23.1251574120       80.4102001577
H                21.1913641720       21.4524011088       80.2199540717
H                21.7230092364       22.9445897841       82.4593620814
H                22.9085450835       21.7532972630       81.8648779683
N                22.3306012580       25.9224025028       78.4995527404
C                21.5145301262       27.0919063630       78.2114238517
C                20.2091927875       26.6047690859       77.5552658107
O                20.0421123643       25.4401100187       77.2358722438
C                22.3759996562       27.9530092594       77.2664987051
C                23.6028425566       27.0696627775       76.9690604654
C                23.1344741838       25.6545600314       77.3308427717
H                21.2608861987       27.5717668500       79.1581755969
H                21.8276549300       28.1545281354       76.3455721951
H                22.6413037917       28.9050707357       77.7209743938
H                23.9110549041       27.1370355853       75.9287920767
H                24.4451747713       27.3226386080       77.6122284382
H                22.4992768325       25.2365439147       76.5446610306
H                23.9517505783       24.9710538906       77.5350871658
N                19.2501245451       27.5518629622       77.4272829378
C                17.9361625545       27.2107369231       76.9291239865
C                17.8202291819       27.4139391081       75.4251682462
O                18.4806984561       28.2234210902       74.7844208765
C                16.8486288364       28.0304773770       77.6287860001
C                16.5244295839       27.5453422757       79.0461597748
C                15.8315987733       28.6734868751       79.8019799109
C                15.6255766663       26.3125123670       79.0058766459
H                19.5140956174       28.5243394995       77.4149944441
H                17.8127544918       26.1418574895       77.1349664136
H                17.1751297342       29.0726872737       77.6452882935
H                15.9383079403       27.9974585163       77.0302338360
H                17.4593388462       27.2841415647       79.5534664170
H                15.6327053552       28.3773403747       80.8284336487
H                16.4579986128       29.5600422075       79.8231726224
H                14.8944440822       28.9346760998       79.3186964403
H                15.4469120357       25.9337048431       80.0089588359
H                14.6689253343       26.5666197290       78.5562509896
H                16.0731900257       25.5097248730       78.4235703072
N                15.2696663647       21.4046074403       80.1233660586
C                16.6458722363       21.0064325735       80.3056246377
C                16.7423006235       19.4894523606       80.5481516211
O                15.7969873747       18.7760234016       80.8317398985
C                17.2707515304       21.7919459999       81.4619348449
C                17.2558123146       23.2906440391       81.1862405264
S                18.2075957339       24.1805586174       82.4837731671
C                17.0484666274       25.5000174790       82.9192118053
H                14.6777333820       21.2388186163       80.9309803759
H                17.1605970826       21.2320321972       79.3624432594
H                16.6933138801       21.5810543266       82.3638963918
H                18.2967958914       21.4591189834       81.6227103093
H                17.7150123463       23.5120457847       80.2226944418
H                16.2366580695       23.6713380242       81.1984684130
H                17.3850535923       25.9258355996       83.8580364973
H                17.0569307955       26.2645108386       82.1477959745
H                16.0622973102       25.0626739516       83.0233188144
N                17.9863838734       18.9852039543       80.3794627177
C                18.1794758025       17.5911397399       80.0107370716
C                18.5071652243       16.7243968101       81.2316981408
O                19.6054007194       16.7383355525       81.7677745155
C                19.2453378065       17.4851263491       78.8961894892
C                20.6317816967       17.9621431316       79.3266845149
C                19.3194653354       16.0503104985       78.3781751209
H                18.7362874534       19.6148422135       80.1373494707
H                17.2189927740       17.2476525684       79.6040224448
H                18.8916825694       18.1278813102       78.0815259721
H                21.2934191240       17.9617724069       78.4647891558
H                20.6086269784       18.9705633639       79.7325977548
H                21.0393915210       17.3017790217       80.0845557078
H                20.0059033214       15.9986280803       77.5371679652
H                19.6809284299       15.3839095122       79.1562809463
H                18.3450994762       15.7032767890       78.0431923689
N                17.3043618081       35.5377390986       85.3795436915
C                18.4973020914       34.7704391831       85.1425437804
C                18.3415484793       33.4460405652       85.8459967169
O                17.5845967981       33.3522814547       86.8098620955
C                19.7096470180       35.5692673823       85.6506806238
O                19.6605531622       36.8663025521       85.1038275146
C                21.0137617259       34.8699770067       85.3248995113
H                17.0739658218       35.7715458511       86.3393690813
H                18.5975189064       34.6211704844       84.0635653635
H                19.6318300507       35.7131255459       86.7342901817
H                19.7581212641       36.8061062724       84.1444595716
H                21.8270345319       35.4746471986       85.7161628079
H                21.0511990660       33.9005695157       85.8093796405
H                21.1036475635       34.7455026865       84.2482705089
N                19.0385799701       32.4153115958       85.3692226508
C                19.0969483442       31.1947046542       86.1395014401
C                20.5447847015       30.7708668206       86.3379204513
O                21.3909019281       30.9113884272       85.4634310220
C                18.2250761892       30.0856847266       85.5431907712
C                18.7079800773       29.6054588958       84.2184078661
C                18.4471894596       30.3651647997       83.0889288076
C                19.3841623543       28.3992943764       84.0940743982
C                18.8259382602       29.9144537738       81.8432192769
C                19.7768268484       27.9415348381       82.8539767832
C                19.4717552550       28.6911240583       81.7236387113
O                19.7883905475       28.1950966587       80.4965654714
H                19.5906889114       32.5210226553       84.5280290672
H                18.6800562018       31.4368416338       87.1242369785
H                18.2043377940       29.2644062815       86.2576223320
H                17.2183883479       30.4932951189       85.4451756276
H                17.9225393346       31.3038679794       83.1817899752
H                19.5757661650       27.8082703963       84.9775118144
H                18.5900160784       30.4983886725       80.9643367371
H                20.2843596978       26.9991570146       82.7234748507
H                19.3640235052       28.7469081522       79.8229935971
N                31.8620068885       20.4012564993       78.5761015718
C                30.6239698629       20.0126597381       77.9092745958
C                30.8677699707       19.0961641681       76.7124137714
O                31.8230235637       19.2063128479       75.9589678785
C                30.0119781639       21.3314478338       77.4040711316
C                30.5970011560       22.3706755570       78.3508840161
C                32.0160762730       21.8495264182       78.5417333909
H                29.9691708777       19.4995149260       78.6214082166
H                30.3560022229       21.5141367331       76.3838270492
H                28.9267527289       21.2897483428       77.3653717205
H                30.5812102133       23.3740222298       77.9343687075
H                30.0518686929       22.3619817058       79.2929956284
H                32.6281066549       22.1433639935       77.6849379314
H                32.4832870667       22.2069223172       79.4502380970
N                31.1049891072       21.0549335619       73.1188157663
C                32.0144633063       22.1740551061       72.9692114341
C                32.9489310913       21.8854976989       71.7911478081
O                33.3614583363       20.7377599775       71.5959108109
C                32.8489939320       22.3470162907       74.2425266979
C                33.3492127194       23.7773172296       74.4456218845
C                32.1814614951       24.7297656527       74.7051245314
C                34.3339001645       23.8091701778       75.6109326469
H                31.5059879653       20.1732894133       73.4030788812
H                31.3974302563       23.0497795760       72.7612593829
H                32.2296815949       22.0477943000       75.0905545895
H                33.6920889479       21.6538672485       74.1962136161
H                33.8749986071       24.0903969993       73.5392916423
H                32.5519556328       25.6863067593       75.0628364656
H                31.6143853044       24.8982743458       73.7951907306
H                31.5099176239       24.3130731842       75.4520366968
H                34.7525298052       24.8053534535       75.7220348913
H                33.8256572754       23.5481416914       76.5345849472
H                35.1465175327       23.1078967448       75.4428871979
N                36.6474167216       26.5269803328       70.4666671588
C                36.1682684484       27.1177392908       71.7010568744
C                37.1376737763       26.7585613470       72.8300398813
O                37.5538074581       27.5940751051       73.6247371093
C                34.7602628456       26.6181044760       72.0222757881
C                33.6892995737       27.3026600139       71.1696274669
C                32.3381501839       26.5980940844       71.2394323915
O                32.1865335481       25.4220322830       71.5587753819
N                31.2941330122       27.3590576446       70.8913708102
H                36.0719558979       25.8205523056       70.0205741172
H                36.1849198229       28.2106617417       71.6048280658
H                34.7339628288       25.5391943564       71.8591252365
H                34.5513763830       26.7973246730       73.0777291561
H                33.5682714022       28.3381476176       71.4868695063
H                34.0052753136       27.2948012773       70.1246475709
H                31.3962274922       28.3280929816       70.6406786664
H                30.3751588452       26.9442221710       70.8803471707
N                39.4835644757       29.0195503456       75.3910927618
C                39.3748539550       29.0587135359       76.8358982525
C                40.7504201196       28.8099614754       77.4728932243
O                41.0980816205       29.3779082868       78.5035817263
C                38.3322081998       28.0729151095       77.3896212776
C                36.9777984928       28.2306261705       76.6903601401
C                38.1748851693       28.3205674407       78.8882500058
C                35.9573752265       27.2068654307       77.1770078962
H                38.9539923181       28.3324851879       74.8710211629
H                39.0877663589       30.0800550763       77.1247383199
H                38.7093136250       27.0593792514       77.2138869950
H                36.5966248634       29.2375976182       76.8722346744
H                37.0929678831       28.1126463478       75.6155335253
H                37.6562898186       27.4907956014       79.3577535407
H                39.1430865321       28.4344784011       79.3645088691
H                37.6034229852       29.2300077006       79.0573893212
H                35.0532845814       27.2616927501       76.5748604354
H                36.3612626695       26.1995133619       77.1011013341
H                35.6807400394       27.3873213117       78.2114403172
H                35.0761314933       24.1648664865       83.9539547611
H                21.0274663169       39.2523270514       75.7170901032
H                17.0480219449       34.6045758558       80.2156993503
H                28.0886508184       33.4972184266       83.6286427384
H                27.8255298771       31.4326103559       85.3087752668
H                17.1720748701       26.8670735720       74.8952304445
H                15.2329402775       22.2862314791       79.9461931240
H                17.8101638967       16.1198059769       81.6172614607
H                17.3661069029       36.3282818144       84.9538328063
H                20.8319863581       30.3625874333       87.2044209708
H                31.8424405407       20.1230909476       79.4318124365
H                30.2261119839       18.3562709369       76.5103419171
H                30.4868510623       21.2514803848       73.7427345943
H                33.2256023571       22.6264793861       71.1792661611
H                36.7497141736       27.1702795083       69.8456185277
H                37.4524335930       25.8155158709       72.9377036533
H                39.2195126907       29.8087716779       75.0484466712
H                41.3903629600       28.1703681462       77.0469900262
