 350 
 
N                 4.5134920941       34.6591154367      -18.5227411240
C                 4.9368421470       35.2073624641      -17.2005734694
C                 6.2152221037       34.4475431485      -16.8061571280
O                 6.6982720641       33.6444644100      -17.5908564981
C                 3.7595671308       34.9431146510      -16.2388771043
C                 2.5831177357       34.6632180627      -17.1728115692
C                 3.2502949978       33.8987419092      -18.3051728163
H                 4.3687325743       35.4030061696      -19.2123388934
H                 5.2970970060       34.0381756294      -18.8336912467
H                 5.1569111032       36.2735780897      -17.2805101324
H                 3.9520453181       34.0694773303      -15.6154942859
H                 3.5709750916       35.7911310196      -15.5873318648
H                 1.8095593759       34.0801460846      -16.6829843376
H                 2.1440441597       35.5920654002      -17.5342885081
H                 3.4973171655       32.8886501175      -17.9777244562
H                 2.6563633796       33.8573907536      -19.2150388250
N                 6.7006247549       34.7256969211      -15.6000263721
C                 7.7512342750       33.9445898708      -14.9781177425
C                 7.2976825683       33.6708592133      -13.5401218295
O                 6.9406262608       34.5955631019      -12.8206384580
C                 9.0778979458       34.7036642803      -14.9594061165
S                10.3816681360       33.6069777052      -14.2407745724
H                 6.2552865311       35.4134765357      -15.0040490818
H                 7.8644086054       33.0062674852      -15.5283973333
H                 9.3823735732       34.9718764107      -15.9689606137
H                 9.0107940201       35.5898338656      -14.3316675877
N                 7.2939457920       32.3901862697      -13.1807276516
C                 6.7646345650       31.9804754415      -11.8994356745
C                 7.1871504067       30.5488748033      -11.5829729461
O                 7.5184672694       29.7465480751      -12.4490227679
C                 5.2322180842       32.1356678289      -11.8774036987
C                 4.5522092449       31.3754063195      -13.0013799609
S                 2.8627967318       32.0130979032      -13.3055410744
C                 2.0186316063       31.4165460472      -11.8254496807
H                 7.5413156706       31.6509859497      -13.8334923717
H                 7.1657289305       32.6439133168      -11.1261229094
H                 4.8616699400       31.8213868277      -10.9037356605
H                 5.0102999262       33.1965902050      -11.9969194286
H                 5.0791759970       31.5255414279      -13.9423910238
H                 4.4798823519       30.3056891653      -12.8039159663
H                 0.9927779989       31.1962879375      -12.1069034599
H                 2.5003245843       30.4999628754      -11.5023618425
H                 2.0495953659       32.1757533408      -11.0494018213
N                 8.0642106649       25.3193617181      -12.5854831441
C                 8.4365252546       26.5861007894      -13.1882081473
C                 7.7669240089       26.7637650919      -14.5587813815
O                 7.5297249166       25.8111021890      -15.2870100386
C                 9.9528721473       26.6489402117      -13.4690906052
C                10.7611013319       26.8785904356      -12.2040660522
S                12.5545955946       26.9463399046      -12.5378802741
C                12.6321813368       28.3704095520      -13.6536052713
H                 7.9163979413       24.5645651386      -13.2427002771
H                 8.1479176294       27.3958252827      -12.5133756975
H                10.2588768698       25.7192807446      -13.9516229233
H                10.1303131940       27.4678133208      -14.1678029638
H                10.4781637591       27.8177331897      -11.7302578651
H                10.6270000662       26.0689011388      -11.4903562934
H                13.6164231097       28.8178414021      -13.5439739022
H                12.4855722211       28.0479776168      -14.6800736703
H                11.8702621591       29.0859316340      -13.3599858505
N                 7.5970082705       28.0478804167      -14.8969199688
C                 7.1913161788       28.5133461166      -16.2086079889
C                 7.8297259049       29.8891792596      -16.4094375542
O                 7.7243053300       30.7581444609      -15.5512068527
C                 5.6683515423       28.6633524242      -16.3056741844
H                 7.6935111642       28.7648028253      -14.1871458653
H                 7.5429395900       27.7850317600      -16.9453244405
H                 5.3870764901       28.9866035294      -17.3034805014
H                 5.2013557963       27.7039525189      -16.1000045361
H                 5.3241246862       29.3908295770      -15.5752862163
N                 8.4399744665       30.1002193236      -17.5766046313
C                 9.0722132342       31.3610443577      -17.9062265889
C                 9.4195196636       31.3628598432      -19.3845068319
O                 9.4316795651       30.3283326320      -20.0378284582
C                10.3869438566       31.5547470317      -17.0975074622
O                11.3593986434       30.5968465629      -17.4098465119
H                 8.6221656340       29.3431603181      -18.2220621948
H                 8.3839081478       32.1781995484      -17.6645990405
H                10.7612857821       32.5725937430      -17.2612193675
H                10.1555212775       31.4379583659      -16.0359351884
H                11.7724012932       30.8402990056      -18.2554577214
N                 9.6868170401       32.5657631288      -19.9056584506
C                10.4300030018       32.7022368224      -21.1401038322
C                11.9208067161       32.4238938272      -20.8242297112
O                12.2381919981       31.8823087218      -19.7769670401
C                10.1635156664       34.0856297255      -21.7401717782
O                10.6412073637       35.0517756544      -20.8286638190
H                 9.7503507135       33.3706016949      -19.2969486465
H                10.0880875092       31.9232714369      -21.8309023112
H                10.6549931553       34.1782604491      -22.7147637466
H                 9.0804579593       34.1982214489      -21.8821793647
H                10.5897865165       35.9284539557      -21.2233972382
N                12.7768679928       32.6857743499      -21.8175871988
C                14.2172237772       32.5596823326      -21.6703904860
C                14.7842410893       33.9829285945      -21.7561185677
O                14.4018061319       34.6941434107      -22.6845779762
C                14.7555832575       31.7093774157      -22.8285171642
C                16.2231181884       31.3389449127      -22.6672833232
C                17.2138378153       32.5316967050      -22.7638844463
O                18.0945492702       32.5997385631      -21.8934382337
O                17.0720640030       33.3306852355      -23.7247994856
H                12.5095458607       33.2885914919      -22.5844758041
H                14.4168989969       32.0949323756      -20.7044141086
H                14.1620491714       30.7951908018      -22.8950270330
H                14.6308789201       32.2806460362      -23.7485009927
H                16.4114948859       30.8504987141      -21.7083706617
H                16.5253366342       30.6407367715      -23.4514760427
N                15.5815259832       34.4187745113      -20.7847016433
C                16.1384649316       33.6278133335      -19.7023617257
C                15.0954412031       33.4409800300      -18.6057906947
O                14.1999841161       34.2691838198      -18.4425817427
C                17.2985001048       34.4676743650      -19.1370483654
C                17.5468545233       35.5269534399      -20.2102459151
C                16.1687523520       35.7459210700      -20.8167768482
H                16.5272021948       32.6859233342      -20.0919284129
H                17.0060620508       34.9180740304      -18.1861478634
H                18.1780540219       33.8483340390      -18.9711282077
H                17.9888053210       36.4388960834      -19.8184564839
H                18.2069373255       35.1130110914      -20.9733681133
H                15.5595874611       36.4256520732      -20.2111117812
H                16.2081350147       36.1047092073      -21.8455792021
N                15.1995629537       32.3587164785      -17.8349556357
C                14.3221145843       32.2488464421      -16.6790347090
C                14.6391779523       33.3920984477      -15.7166846994
O                15.7183049426       33.9589161421      -15.7070127408
C                14.6447914146       30.8794559025      -16.0557119547
C                15.5228809976       30.1893173912      -17.1037083837
C                16.2412110489       31.3532054407      -17.7786575674
H                13.2870727147       32.3236948422      -17.0199309478
H                15.1999130685       31.0045394274      -15.1259127489
H                13.7359054391       30.3188494228      -15.8542789353
H                16.2109456167       29.4710523502      -16.6694627275
H                14.9023798708       29.6761565434      -17.8358681948
H                17.0753603218       31.7221304877      -17.1703564002
H                16.6275081153       31.1052945279      -18.7670697932
N                13.6571497369       33.6772307972      -14.8337869913
C                13.8396712248       34.7211436967      -13.8524985239
C                14.3124866687       34.2008007240      -12.4923375274
O                14.7484502802       34.9987103642      -11.6635335482
C                12.6000098714       35.5825495560      -13.6367132313
S                11.2376780503       34.7272036380      -12.7857905926
H                12.7417141790       33.2579780817      -14.9296767699
H                14.6322024231       35.3820330909      -14.2304465846
H                12.8447903993       36.4051425908      -12.9624819883
H                12.2487570279       35.9937486346      -14.5811758029
N                14.1771828464       32.8975182348      -12.2893656194
C                14.5160581271       32.2039832123      -11.0696496932
C                15.1294274023       30.8569749401      -11.4507105634
O                15.0368235198       30.4225560273      -12.5913792222
C                13.2562150937       31.9913085217      -10.1949555575
C                12.7575385182       33.3255572051       -9.6538074943
C                12.1514940436       31.2755598099      -10.9678958115
H                13.9518452478       32.2841082548      -13.0654717121
H                15.2466629094       32.7890575419      -10.5055881019
H                13.5723899073       31.3688671823       -9.3552559443
H                11.8704252130       33.1791032345       -9.0454812230
H                13.5232766279       33.7940702164       -9.0440395380
H                12.5063459251       34.0075295954      -10.4610400528
H                11.3281721418       31.0502426485      -10.2961199515
H                11.7737771165       31.9048185801      -11.7697637788
H                12.5281063254       30.3478005871      -11.3892605320
N                17.2192535338       35.2909495767      -10.5541680297
C                18.1430904693       35.5257055899      -11.6359936838
C                17.9195994288       36.8405174006      -12.3812972135
O                18.8333407941       37.3343308181      -13.0249187800
C                18.1101715418       34.3845868057      -12.6585567397
C                18.4689031649       33.0098397075      -12.0805795404
C                18.4053727259       31.9884894265      -13.2166236363
C                19.8525304692       33.0155330597      -11.4350786216
H                16.2625885581       35.0450157681      -10.8093105881
H                19.1430903600       35.5980291132      -11.1934902778
H                17.1132603152       34.3436466488      -13.1048669719
H                18.8207815134       34.6450951474      -13.4440346332
H                17.7335095594       32.7455890098      -11.3117590379
H                18.8093146845       31.0362438801      -12.8876930484
H                17.3777633416       31.8440883453      -13.5417709247
H                18.9889423189       32.3427697492      -14.0603067832
H                20.1296966754       32.0210502945      -11.0946876664
H                20.6003951538       33.3737013730      -12.1361985227
H                19.8785687952       33.6524107530      -10.5525882584
N                16.6905612252       37.3790327765      -12.3314789416
C                16.4150534846       38.6929550114      -12.8804353255
C                16.0159676432       39.6444465578      -11.7542194132
O                15.2451631874       39.3112829180      -10.8619143147
C                15.2945419925       38.6354725250      -13.9334075949
C                15.8016361028       38.0052821139      -15.2304619875
C                14.6876494524       37.4450077591      -16.1083594697
O                13.5114556850       37.4363902203      -15.7850852435
N                15.1229539836       36.9471508665      -17.2777484258
H                15.9470480794       36.9277809945      -11.8142382846
H                17.3483545531       39.0345120813      -13.3404162405
H                14.4645760919       38.0497456240      -13.5339295165
H                14.9107637005       39.6409311760      -14.1160037677
H                16.3703783363       38.7358355975      -15.8056991392
H                16.4668659205       37.1716007025      -14.9868414615
H                16.1101628378       36.8886804699      -17.4610702983
H                14.5112553250       36.3647275231      -17.8368753501
N                22.1616443966       36.4326891124      -28.2292412455
C                21.2168258587       35.3514762896      -28.4145227270
C                21.0247206675       35.0436733041      -29.9039698181
O                20.8747713592       35.9251690673      -30.7453542585
C                19.8606469081       35.6962587758      -27.7870015932
C                18.8784632353       34.5274102219      -27.8414594128
C                17.6757063068       34.8089063237      -26.9443808912
C                16.6192709975       33.7109895007      -27.0035403917
N                15.6891606222       33.8415483202      -25.8581759505
H                21.8348983396       37.3431963244      -28.5310066894
H                21.6283678416       34.4698039014      -27.9149241755
H                20.0363025480       35.9573099304      -26.7408258677
H                19.4376609545       36.5749353773      -28.2804561958
H                18.5532876701       34.3464752219      -28.8681233186
H                19.3880693341       33.6249895026      -27.4928274805
H                18.0366656787       34.8946167234      -25.9158827395
H                17.2387185283       35.7640529859      -27.2364965298
H                16.0598005815       33.7668800713      -27.9400021754
H                17.0988552049       32.7333012840      -26.9372153567
H                14.8748647534       33.2317929143      -25.9628996666
H                16.2205854272       33.5824935087      -24.9276760975
H                15.3759739311       34.8106162957      -25.7468609032
N                23.0416779140       29.4580003189      -21.9281706726
C                21.7977347576       28.7346523037      -22.0315611312
C                21.6392619959       28.1322871579      -23.4281028611
O                21.9912809610       28.7521000768      -24.4275538537
C                20.5791048748       29.6563421100      -21.8196266605
C                20.3929398334       30.0111416854      -20.3753516761
C                21.0277282453       31.1122167479      -19.8166559043
C                19.5935407940       29.2226748980      -19.5595927117
C                20.8788815690       31.4069667584      -18.4760683887
C                19.4509715340       29.4955023210      -18.2125538754
C                20.1012927107       30.5916938420      -17.6592210611
O                20.0072744446       30.9022854710      -16.3379053515
H                23.1313497448       30.2910670873      -22.5013888188
H                21.7953027223       27.9383204912      -21.2813844898
H                20.7073511743       30.5611626607      -22.4230454380
H                19.6831377526       29.1506549695      -22.1921011642
H                21.6359302491       31.7492878205      -20.4437428350
H                19.0618280875       28.3907152492      -19.9977062893
H                21.3560313276       32.2807362361      -18.0625442742
H                18.8066859728       28.8670635509      -17.6158270248
H                19.4323644291       30.2674267778      -15.8840202009
N                18.2144505163       26.8181926375      -25.1367182488
C                16.8149145513       26.9836988613      -24.7800728024
C                16.7719743312       27.5034635787      -23.3377229014
O                17.4760273546       28.4593443080      -23.0300544628
C                16.0345466507       25.7006603528      -25.0744496903
C                16.1736416628       25.3927380909      -26.5654848996
O                16.2918415759       26.3005827727      -27.3852518107
N                16.1545215698       24.1063941682      -26.8974238473
H                18.5988123116       27.3296607521      -25.9228137218
H                16.4279119810       27.8030786084      -25.3950059435
H                16.4204347880       24.8793830821      -24.4701219362
H                14.9773719043       25.8563554908      -24.8578424136
H                16.2629682750       23.8124013297      -27.8730984656
H                16.0145125620       23.3974121280      -26.1974015180
N                15.8675688246       26.9563159750      -22.5046633785
C                15.6805929711       27.4937059682      -21.1744043013
C                16.6814112668       26.9672393026      -20.1377468814
O                16.5592861490       27.2620675890      -18.9546543053
C                14.2588091351       27.2021442041      -20.6880642710
C                13.1953860247       27.8536665190      -21.5706445978
C                11.7885068798       27.6605986866      -20.9969019056
C                10.7291058148       27.9617926655      -22.0547017599
N                 9.3712852802       27.9667811901      -21.4499492419
H                15.5968788448       25.9893853592      -22.6265674964
H                15.8487516359       28.5769796456      -21.2481841119
H                14.1315702513       26.1171360039      -20.6682434444
H                14.1860279682       27.5712927617      -19.6645310738
H                13.4182794940       28.9189648371      -21.6639938528
H                13.2572156919       27.4186772938      -22.5691766194
H                11.6957559080       26.6299045943      -20.6537743761
H                11.6639742677       28.3282711549      -20.1441179909
H                10.9227233585       28.9417436939      -22.4914760037
H                10.7748470098       27.2097238279      -22.8433204369
H                 8.6479556756       28.0529785790      -22.1752848692
H                 9.2190497234       27.1008381622      -20.9157740386
H                 9.2958045513       28.7903605579      -20.8102036945
N                17.9346117477       27.6799679204      -29.2144862874
C                18.5195522073       28.9761909138      -28.9708667852
C                19.7367862040       28.8208162486      -28.0644928072
O                19.8086202714       27.9126361040      -27.2446188317
C                17.4821823615       29.9278791760      -28.3189246456
O                16.8991277410       29.3505378877      -27.1769365195
C                16.4383232476       30.3330083549      -29.3571982017
H                17.6119409143       27.1472959092      -28.4129865595
H                18.8246303624       29.4021937555      -29.9286910176
H                18.0170024542       30.8142280391      -27.9587181912
H                16.4022315293       28.5655303417      -27.4580895193
H                15.6488339524       30.9100704639      -28.8856175918
H                16.9069217605       30.9290095237      -30.1344446989
H                15.9942576931       29.4502777361      -29.8171587328
N                22.3329660540       31.5085265319      -25.6694398416
C                22.3797448860       32.8399748725      -25.0918122860
C                23.4145786835       32.9040534501      -23.9761762253
O                23.6144782659       31.9367976809      -23.2389370503
C                21.0160423328       33.2523814115      -24.5258924187
C                20.8263540158       34.8083447678      -24.4431898090
O                21.8388462790       35.5204699147      -24.5854113959
O                19.6654737848       35.1980247589      -24.2472632804
H                22.4198209178       30.7173165414      -25.0407452117
H                22.6560315394       33.5452472245      -25.8830498044
H                20.2135790971       32.8683749633      -25.1608410445
H                20.8516702983       32.8512534778      -23.5201258075
N                24.4128944919       35.1744600966      -20.6538628977
C                23.6866158794       36.0303284319      -19.7351478137
C                24.6095635001       36.3925313684      -18.5694309070
O                25.1734414647       35.5344927783      -17.9023484094
C                22.4358777153       35.2933295407      -19.2113259000
C                21.4876722036       34.9269174434      -20.3603505318
C                21.7295238171       36.1113116097      -18.1322354823
C                20.9630764944       36.1179264219      -21.1500159955
H                24.5919003488       34.2283671325      -20.3290292332
H                23.4012349330       36.9276635140      -20.2888135786
H                22.7926089175       34.3534948677      -18.7720835412
H                21.9968807782       34.2558828138      -21.0612890128
H                20.6351705136       34.3707995309      -19.9619188732
H                20.7908011078       35.6330661113      -17.8671587309
H                22.3552779960       36.1946971351      -17.2471869676
H                21.5083862031       37.1120549812      -18.4915248463
H                20.2513622325       35.7766830398      -21.9007565844
H                20.4601567967       36.8351353407      -20.5086060324
H                21.7606831821       36.6166028713      -21.6974108949
N                -2.4614549374       35.1350260875      -12.4404143179
C                -1.8024454167       34.1576287426      -13.2841765572
C                -2.5061887060       32.8018850421      -13.2485619364
O                -3.2173308365       32.4476373446      -12.3133270882
C                -0.3478036401       33.9783765625      -12.8374274542
H                -3.0032799638       34.7930956103      -11.6568604169
H                -1.8181922305       34.5537258871      -14.3061122289
H                 0.1459901159       33.2123455325      -13.4285552602
H                 0.1755671533       34.9208377243      -12.9608247400
H                -0.3176146655       33.6781240121      -11.7928594251
H                17.2114066284       27.7711383113      -29.7423710431
H                20.4966292811       29.4673518548      -28.1325384391
H                21.5454764456       31.3905128916      -26.0888833985
H                23.9442524754       33.7400698206      -23.8329201524
H                23.9478828221       35.0932292458      -21.4201302765
H                24.7656539631       37.3519869294      -18.3347379291
H                -1.8462056146       35.6837634667      -12.0793664547
H                -2.3962908026       32.1613712489      -14.0086043902
H                 7.2018716160       30.2297840909      -10.6353631091
H                 8.7146445717       25.0509775817      -12.0243185620
H                15.6151860320       30.3165126275      -10.7637323670
H                17.5174725891       34.6099893587      -10.0468628193
H                16.3865535794       40.5729077437      -11.7292016130
H                22.3641584966       36.5082859315      -27.3555861876
H                21.0183631513       34.0955597996      -30.2218382888
H                23.1608196627       29.7309001687      -21.0788586476
H                21.2438313984       27.2203111926      -23.5373479126
H                18.7323542790       27.0631996636      -24.4426381023
H                17.4380094172       26.3804526763      -20.4262615154
