 225 
 
N                34.8764000924      -10.2076031417      -29.6604833893
C                34.7739523038       -8.7235695701      -29.3821354923
C                34.1433457015       -8.4467129436      -27.9523094203
O                34.9048426340       -8.2114690326      -27.0299146136
C                34.1095548989       -8.0332661101      -30.5946106672
C                34.2245694805       -6.5053894218      -30.6115717386
S                33.3699546290       -5.8175182263      -32.0814957191
C                31.9365776631       -4.9392024029      -31.4064318294
H                35.6573484123      -10.3958627589      -30.3069728161
H                35.0495287917      -10.7278613160      -28.7832521803
H                34.0063380808      -10.5710804163      -30.0812059127
H                35.7935520655       -8.3424723287      -29.2667396737
H                34.6073010012       -8.3964305341      -31.4962875913
H                33.0539364722       -8.3033373304      -30.6643022635
H                33.8028622830       -6.0496731268      -29.7190821093
H                35.2681562985       -6.2044591352      -30.6969103220
H                31.6723887543       -4.1994373465      -32.1578812245
H                31.1210611180       -5.6375291672      -31.2828825578
H                32.2233336433       -4.4485744045      -30.4869273402
N                32.7931663124       -8.4877013568      -27.9060572526
C                31.8296165426       -7.8440118193      -26.9850682051
C                31.7191107941       -8.4592805965      -25.5062870258
O                32.4498838127       -8.0344694553      -24.6230130570
C                30.4735357338       -7.7210215333      -27.7507182375
C                30.4338262992       -6.7794730473      -28.9900318715
C                29.1882397352       -7.0669648864      -29.8317074222
C                30.4464977278       -5.3061644469      -28.5800703701
H                32.3284916091       -8.9004837982      -28.7060116114
H                32.2317588822       -6.8468872692      -26.7661282925
H                30.1869239464       -8.7238697940      -28.0771306922
H                29.7284480294       -7.3732673888      -27.0345820757
H                31.3197673987       -6.9838785911      -29.5955769942
H                29.1836988940       -6.4471478850      -30.7228114984
H                29.1488554152       -8.1086313296      -30.1412251704
H                28.2912172113       -6.8419170525      -29.2616263440
H                30.2212122808       -4.6654018015      -29.4237575429
H                29.6975847858       -5.1224245533      -27.8129932000
H                31.4139228407       -5.0189993765      -28.1707739660
N                30.7304191035       -9.3542903774      -25.2746599043
C                30.2431376865       -9.7904191102      -23.9576399741
C                30.3033525749      -11.3426283964      -23.7938150679
O                29.3654046254      -12.0653495170      -24.1122097664
C                28.7586870347       -9.3866757201      -23.7653597987
C                28.4331308598       -7.8814848548      -23.7568767358
C                26.9132724088       -7.6513809558      -23.8092077076
C                26.5517459081       -6.1643965226      -23.8655207046
N                25.0683333833       -5.9921193045      -23.9108159783
H                30.1842609611       -9.6982037979      -26.0528863695
H                30.8879345076       -9.3279678439      -23.2060786495
H                28.2020479350       -9.8881643383      -24.5621785031
H                28.4405619047       -9.8382822153      -22.8253668037
H                28.8612548131       -7.4414775589      -22.8591536292
H                28.9066253622       -7.4129991201      -24.6219184929
H                26.5188141143       -8.1682615787      -24.6865090383
H                26.4731781748       -8.1146454293      -22.9247076979
H                26.9396259083       -5.6653359348      -22.9785572328
H                26.9851199459       -5.7097900778      -24.7550391788
H                24.8078512147       -4.9971049343      -23.9050633462
H                24.6780551159       -6.4399814814      -24.7552792116
H                24.6402572312       -6.4502811383      -23.0898246036
N                31.4313690836      -11.8328741666      -23.2719786838
C                31.5698931239      -13.2316975394      -22.9045514070
C                31.7451518057      -13.2514284367      -21.3776313907
O                31.0602997492      -12.5426233232      -20.6560377787
C                32.6639287869      -13.8708256137      -23.7638534299
C                32.2030571773      -13.9970090659      -25.2191543315
C                33.3964355412      -13.7824390383      -26.2068658261
O                33.9793609788      -12.6803006592      -26.1354295172
O                33.6736728346      -14.7110246807      -26.9905428038
H                32.1630734662      -11.2024626313      -22.9684829679
H                30.6033645740      -13.7047453482      -23.1295807376
H                33.5506043578      -13.2313992427      -23.7422300553
H                32.9264612125      -14.8685135085      -23.4125800660
H                31.7389479978      -14.9684533802      -25.4023148467
H                31.4701492723      -13.2218901029      -25.4487809973
N                32.7333440148      -14.0413041120      -20.9057652937
C                33.1011020688      -14.0367845371      -19.4984865209
C                34.5295991700      -13.4990599374      -19.2790972123
O                34.8337851674      -12.8776451949      -18.2722585099
C                32.9343763663      -15.4228010581      -18.8391474647
C                33.1061658613      -15.3762036342      -17.3391125212
C                32.2420394115      -14.6125163086      -16.5573511204
C                34.0816956272      -16.1370388223      -16.7113463231
C                32.3115148427      -14.6452436370      -15.1758598505
C                34.1475059828      -16.1760939024      -15.3283528265
C                33.2512782124      -15.4508059451      -14.5576226413
H                33.0700948922      -14.7985917605      -21.4804596345
H                32.4280842934      -13.3255244868      -19.0081199437
H                31.9208355010      -15.7679472849      -19.0606313625
H                33.6455369363      -16.1287373116      -19.2717697714
H                31.4822823410      -14.0085847940      -17.0346611163
H                34.7753550912      -16.7198921499      -17.2991169979
H                31.6185715630      -14.0634071440      -14.5871988963
H                34.8996063055      -16.7820929652      -14.8416555359
H                33.3015443155      -15.4951807302      -13.4794938593
N                35.4209074730      -13.7797162208      -20.2620937414
C                36.7646963113      -13.2346557102      -20.2189388538
C                36.8444312904      -11.7703835040      -20.7201913976
O                37.8978607069      -11.1659268794      -20.5780036411
C                37.7790842092      -14.1548432642      -20.9402914929
C                39.1991893200      -13.9538749929      -20.3891056308
C                40.2934966382      -14.3717059121      -21.3761133619
C                41.6358405523      -13.7507155434      -20.9903281190
N                42.6706730297      -14.0230608714      -22.0250718897
H                35.1182166041      -14.2387163131      -21.1077273168
H                37.0197827622      -13.1762925365      -19.1512477818
H                37.4553599277      -15.1848830153      -20.7904093011
H                37.7361822567      -13.9415618298      -22.0093320708
H                39.2981362466      -12.8987382285      -20.1376657090
H                39.2939661537      -14.5129444214      -19.4585326499
H                40.3681033924      -15.4592976325      -21.3731010937
H                39.9909974810      -14.0695256966      -22.3770623841
H                41.5446273891      -12.6761490895      -20.8496603109
H                41.9660579578      -14.1788296543      -20.0419028117
H                43.5666525480      -13.5803119521      -21.7674660638
H                42.8260992347      -15.0414379245      -22.0934658988
H                42.3868851237      -13.6927295579      -22.9600074383
N                35.7630320114      -11.2264938290      -21.3095412322
C                35.6321847620       -9.8272158428      -21.7396733819
C                34.1780718445       -9.4221303856      -21.4942401109
O                33.2989959595      -10.0873291288      -22.0297050527
C                35.8899103411       -9.6862346230      -23.2612044277
C                35.8426929247       -8.2397892908      -23.7755455844
C                37.2062369367       -7.4608166477      -23.9162887986
O                38.2601287026       -8.1250271223      -23.9811119148
O                37.1290572260       -6.2197764464      -23.9813276128
H                34.9110969512      -11.7665415183      -21.3984271576
H                36.3418177494       -9.2258631833      -21.1669923621
H                36.8727941458      -10.0974485845      -23.4986512185
H                35.1274451862      -10.2750390776      -23.7783269119
H                35.4531165970       -8.2406761245      -24.7954317351
H                35.1542340213       -7.6270770076      -23.1887830658
N                33.8945537411       -8.3798115695      -20.6925229390
C                32.5028365391       -8.0505449827      -20.4243337413
C                31.9075545123       -6.9638886439      -21.3667807288
O                30.7167755079       -7.0416741218      -21.6129625588
C                32.1926552033       -7.6931023112      -18.9497361987
C                32.0875267380       -8.8088915411      -17.9122529188
C                33.0528630805       -8.8932446056      -16.9118707412
C                30.9762229620       -9.6482488464      -17.8226840997
C                32.9055334231       -9.7660842178      -15.8504695912
C                30.8268134096      -10.5218357289      -16.7584831226
C                31.7867504118      -10.5756445558      -15.7643207635
H                34.6241603656       -7.8824757050      -20.2042773338
H                31.9298273242       -8.9546208853      -20.6718857031
H                32.9349071854       -6.9696733857      -18.6036449784
H                31.2233080132       -7.1871086068      -18.9672510491
H                33.9267552748       -8.2577494868      -16.9583306096
H                30.2045376639       -9.5884770316      -18.5763706092
H                33.6795278894       -9.8187690403      -15.0985676554
H                29.9520135078      -11.1481271382      -16.6933647293
H                31.6879338668      -11.2542626697      -14.9314000558
N                32.7003702040       -5.9496083536      -21.7929992921
C                32.3327631932       -5.0143793350      -22.8830765713
C                33.3156971985       -3.8385517443      -23.1699100284
O                33.3814555999       -3.4540806962      -24.3264662168
C                30.9597569752       -4.3548920789      -22.6806619138
H                33.6975568863       -6.0616191902      -21.6701562239
H                32.3134500981       -5.5972907688      -23.8131661958
H                30.7699859985       -3.6927527025      -23.5193564651
H                30.1912068447       -5.1167684776      -22.6187776736
H                30.9663794725       -3.7764706168      -21.7590432342
N                33.9162088968       -3.2512997592      -22.1013931429
C                34.8731208818       -2.1179932167      -22.0181540707
C                35.7195587494       -2.2629231488      -20.6832348656
O                35.9839389693       -3.3803745338      -20.2503608060
C                34.1867944995       -0.7398593473      -22.1368260818
C                33.3908323650       -0.4645902368      -23.4249015468
C                32.7373816551        0.9140774691      -23.2873502884
C                34.2713105700       -0.5331360464      -24.6746118451
H                33.7995859008       -3.7332393046      -21.2172442074
H                35.5941319302       -2.2263188253      -22.8400029439
H                33.5196240272       -0.6135843260      -21.2814592290
H                34.9713658925        0.0177755390      -22.0850068979
H                32.6032897567       -1.2164050651      -23.5252343897
H                32.1056039606        1.1182190065      -24.1472999157
H                32.1282617298        0.9675116673      -22.3890841712
H                33.5047759494        1.6841380795      -23.2350848576
H                33.7029862119       -0.2203747391      -25.5460481522
H                35.1443432018        0.1096714158      -24.5741678139
H                34.6026157882       -1.5522954881      -24.8443637410
N                41.2428981229       -1.8262533367      -27.4723595456
C                41.0197835236       -2.9952289649      -26.6222715830
C                41.0076006705       -4.3435010269      -27.3960899952
O                39.9442045580       -4.8013315884      -27.8092703182
C                39.6481817603       -2.9504486245      -25.9805394793
C                39.5304447368       -1.8629044424      -24.9608401851
S                38.1281844664       -2.3137739868      -23.9570573374
C                38.9604798302       -3.4158924669      -22.7491906983
H                40.4232643384       -1.4414683415      -27.9271134448
H                41.8196332746       -3.0001773049      -25.8752730307
H                38.8907152618       -2.8181320534      -26.7574960056
H                39.4554368796       -3.9244094038      -25.5204740828
H                40.4101021193       -1.7611836292      -24.3256289791
H                39.3013729274       -0.8986077750      -25.4057451411
H                38.2524697829       -3.5392651631      -21.9362622823
H                39.1559868850       -4.3804331299      -23.2060379440
H                39.8604492042       -2.9121241790      -22.4208044281
N                41.5843810331       -8.5206841134      -27.8891051928
C                41.5650232164       -9.7742634439      -27.1404591302
C                42.4265932741      -10.7280588441      -28.0116322512
O                42.2243270078      -10.7972654098      -29.2175334935
C                40.1354685488      -10.2517795982      -26.8154180402
C                40.0316632544      -11.2562937499      -25.6566605083
C                40.2399404130      -10.5438271054      -24.3194767369
C                40.1007237353      -11.4509915717      -23.1002762361
N                40.2517230820      -10.6066259809      -21.8731204134
H                41.7020219268       -8.6395653567      -28.8854807596
H                42.0873625340       -9.5705390982      -26.1984244104
H                39.5622827241       -9.3596959970      -26.5487425062
H                39.7052888676      -10.6773448067      -27.7241389769
H                39.0335629112      -11.6918736693      -25.6845292403
H                40.7627956241      -12.0560348328      -25.7947467753
H                41.2367302022      -10.0979319213      -24.3137699685
H                39.5202800215       -9.7266913126      -24.2552840349
H                39.1111502932      -11.9082876208      -23.0920427597
H                40.8571203992      -12.2374026698      -23.1001100669
H                39.9447651147      -11.1231308041      -21.0127069707
H                41.2223714663      -10.2911646552      -21.7580700142
H                39.6532500857       -9.7696234810      -21.9999837170
H                36.0343784202       -1.4461962827      -20.1996588106
H                41.5898812766       -1.1580547243      -26.9792943314
H                41.8631796892       -4.8357067514      -27.5564585315
H                40.8076064587       -8.0837928595      -27.7636169750
H                43.1428312235      -11.2823314606      -27.5876215598
