 477 
 
N                21.5610000000       35.2730000000       14.2290000000
C                20.7940000000       34.1180000000       14.6740000000
C                20.6840000000       33.1110000000       13.5490000000
O                20.7070000000       33.4720000000       12.3590000000
C                19.4230000000       34.5880000000       15.2100000000
O                18.8820000000       33.4980000000       15.9600000000
C                18.5640000000       35.0330000000       14.0620000000
H                21.3790000000       35.6520000000       13.3020000000
H                21.3310000000       33.6630000000       15.5140000000
H                19.6160000000       35.4380000000       15.8860000000
H                17.9310000000       33.6540000000       16.1610000000
H                17.6360000000       35.4640000000       14.4380000000
H                19.0980000000       35.7790000000       13.4800000000
H                18.3240000000       34.1820000000       13.4310000000
N                18.0130000000       30.7480000000       11.6500000000
C                16.5770000000       30.5520000000       11.4220000000
C                16.5030000000       29.4750000000       10.3710000000
O                17.2140000000       29.5540000000        9.3770000000
C                15.9040000000       31.7820000000       10.8400000000
C                16.1080000000       33.0920000000       11.6710000000
C                14.3820000000       31.5110000000       10.6270000000
C                15.5270000000       32.9220000000       13.1070000000
H                18.6090000000       30.8440000000       10.8350000000
H                16.1180000000       30.2420000000       12.3590000000
H                16.3620000000       31.9660000000        9.8590000000
H                17.1750000000       33.3060000000       11.7360000000
H                15.6070000000       33.9140000000       11.1650000000
H                13.8790000000       32.4350000000       10.3630000000
H                14.2370000000       30.7830000000        9.8330000000
H                13.9510000000       31.1060000000       11.5370000000
H                15.5900000000       33.8690000000       13.6360000000
H                14.4860000000       32.6250000000       13.0680000000
H                16.1010000000       32.1870000000       13.6580000000
N                 8.1980000000       33.5990000000        4.7860000000
C                 9.0510000000       33.5860000000        5.9720000000
C                10.2550000000       34.4750000000        5.7620000000
O                10.5460000000       35.2960000000        6.6330000000
C                 9.4500000000       32.1270000000        6.3760000000
C                 8.1770000000       31.4470000000        6.8860000000
C                10.5500000000       32.1790000000        7.4530000000
C                 8.4160000000       29.9320000000        7.0760000000
H                 8.2710000000       32.8110000000        4.1570000000
H                 8.4720000000       34.0430000000        6.7850000000
H                 9.8090000000       31.6280000000        5.4720000000
H                 7.8700000000       31.9000000000        7.8270000000
H                 7.3950000000       31.5740000000        6.1410000000
H                10.7760000000       31.1810000000        7.8090000000
H                11.4580000000       32.6010000000        7.0260000000
H                10.2260000000       32.8080000000        8.2740000000
H                 7.4870000000       29.4440000000        7.3480000000
H                 8.7550000000       29.5040000000        6.1350000000
H                 9.1600000000       29.7410000000        7.8420000000
N                10.8670000000       34.3650000000        4.5940000000
C                12.0270000000       35.2140000000        4.3210000000
C                11.5930000000       36.6840000000        4.3660000000
O                12.2750000000       37.5320000000        4.9810000000
C                12.6420000000       34.8800000000        2.9380000000
C                13.4270000000       33.5860000000        3.1220000000
C                13.5210000000       36.0370000000        2.4740000000
C                14.0210000000       33.0320000000        1.8150000000
H                10.5790000000       33.7080000000        3.8840000000
H                12.7780000000       35.0740000000        5.1100000000
H                11.8320000000       34.7250000000        2.2110000000
H                14.2430000000       33.7470000000        3.8300000000
H                12.7520000000       32.8270000000        3.5220000000
H                13.9900000000       35.8130000000        1.5190000000
H                12.9410000000       36.9460000000        2.3190000000
H                14.3010000000       36.2430000000        3.2040000000
H                14.5390000000       32.0930000000        1.9940000000
H                13.2320000000       32.8520000000        1.0850000000
H                14.7270000000       33.7290000000        1.3720000000
N                10.4120000000       36.9710000000        3.7990000000
C                 9.9810000000       38.3660000000        3.7460000000
C                 9.7800000000       38.9060000000        5.1330000000
O                 9.9330000000       40.1190000000        5.2920000000
C                 8.6290000000       38.5230000000        3.0470000000
O                 8.7860000000       38.4750000000        1.6590000000
H                10.0050000000       36.3000000000        3.1610000000
H                10.7170000000       38.9840000000        3.2130000000
H                 7.9530000000       37.7370000000        3.4090000000
H                 8.2420000000       39.5230000000        3.2520000000
H                 8.9710000000       37.5670000000        1.3950000000
N                 9.3600000000       38.1050000000        6.1170000000
C                 9.1390000000       38.6980000000        7.4320000000
C                10.4150000000       39.2980000000        8.0090000000
O                10.4130000000       40.3820000000        8.6070000000
C                 8.6300000000       37.6690000000        8.4150000000
C                 7.2440000000       37.1290000000        8.0880000000
C                 6.1220000000       38.1410000000        8.1060000000
N                 4.9500000000       37.5030000000        7.5830000000
C                 4.0230000000       36.9370000000        8.3470000000
N                 4.1560000000       36.9470000000        9.6830000000
N                 2.9790000000       36.3740000000        7.7470000000
H                 9.2940000000       37.1020000000        6.0120000000
H                 8.4310000000       39.5270000000        7.3210000000
H                 9.3430000000       36.8430000000        8.4420000000
H                 8.6000000000       38.1360000000        9.4010000000
H                 7.2740000000       36.6630000000        7.1010000000
H                 7.0100000000       36.3540000000        8.8190000000
H                 5.9630000000       38.5490000000        9.1030000000
H                 6.3480000000       38.9870000000        7.4510000000
H                 4.8920000000       37.4480000000        6.5670000000
H                 4.8750000000       37.4770000000       10.1590000000
H                 3.3270000000       36.7210000000       10.2120000000
H                 2.8420000000       36.4730000000        6.7420000000
H                 2.1850000000       36.1560000000        8.3420000000
N                11.5370000000       38.5940000000        7.8560000000
C                12.8330000000       39.0360000000        8.3450000000
C                13.3740000000       40.1720000000        7.4600000000
O                13.9620000000       41.1680000000        7.8910000000
C                13.8430000000       37.8620000000        8.3780000000
C                13.6110000000       36.9440000000        9.5370000000
C                12.6520000000       35.9230000000        9.4440000000
C                14.2640000000       37.1930000000       10.7350000000
C                12.3350000000       35.1660000000       10.5670000000
C                13.9520000000       36.4200000000       11.8650000000
C                12.9800000000       35.4230000000       11.7830000000
H                11.5330000000       37.7970000000        7.2320000000
H                12.6870000000       39.4490000000        9.3510000000
H                13.7600000000       37.3410000000        7.4210000000
H                14.8440000000       38.2980000000        8.4310000000
H                12.1530000000       35.7480000000        8.5030000000
H                15.0040000000       37.9770000000       10.7920000000
H                11.5920000000       34.3890000000       10.4970000000
H                14.4730000000       36.6070000000       12.7900000000
H                12.7280000000       34.8520000000       12.6630000000
N                13.1820000000       39.9990000000        6.1550000000
C                13.7380000000       40.9860000000        5.1960000000
C                13.0180000000       42.3220000000        5.3840000000
O                13.6050000000       43.4170000000        5.4420000000
C                13.4960000000       40.3880000000        3.8040000000
C                14.2940000000       41.0140000000        2.6920000000
C                14.1160000000       40.1790000000        1.3290000000
O                13.0410000000       39.5520000000        1.1830000000
O                15.0640000000       40.2170000000        0.5420000000
H                12.7950000000       39.1530000000        5.7580000000
H                14.8070000000       41.1340000000        5.3920000000
H                13.7480000000       39.3240000000        3.8490000000
H                12.4300000000       40.4590000000        3.5670000000
H                13.9610000000       42.0320000000        2.4740000000
H                15.3620000000       41.0390000000        2.9060000000
N                11.6630000000       43.4990000000        7.9290000000
C                11.9210000000       44.0630000000        9.2700000000
C                13.1890000000       44.9400000000        9.2470000000
O                13.3570000000       45.8250000000       10.0870000000
C                12.0680000000       42.9480000000       10.2970000000
C                12.0900000000       43.4780000000       11.7710000000
C                10.6840000000       43.7900000000       12.2940000000
N                10.7750000000       44.4200000000       13.6030000000
C                10.4180000000       43.9550000000       14.7940000000
N                 9.7780000000       42.8010000000       14.9420000000
N                10.7950000000       44.6180000000       15.9030000000
H                11.6770000000       42.4980000000        7.8170000000
H                11.0810000000       44.7180000000        9.5240000000
H                11.2380000000       42.2510000000       10.1760000000
H                12.9990000000       42.4160000000       10.0910000000
H                12.5520000000       42.7240000000       12.4060000000
H                12.7000000000       44.3810000000       11.8090000000
H                10.1720000000       44.4840000000       11.6210000000
H                10.0850000000       42.8820000000       12.3610000000
H                11.2570000000       45.3190000000       13.6010000000
H                 9.1280000000       42.5390000000       14.2120000000
H                 9.5050000000       42.6000000000       15.9010000000
H                11.0940000000       45.5710000000       15.7870000000
H                10.3220000000       44.3580000000       16.7670000000
N                14.0700000000       44.5960000000        8.3130000000
C                15.3800000000       45.2430000000        8.1790000000
C                16.5840000000       44.4260000000        8.6050000000
O                17.7070000000       44.9340000000        8.6370000000
H                13.8230000000       43.9060000000        7.6180000000
H                15.5350000000       45.5480000000        7.1410000000
H                15.3490000000       46.1420000000        8.8020000000
N                16.3710000000       43.1380000000        8.8790000000
C                17.5170000000       42.2850000000        9.2060000000
C                18.2330000000       41.8780000000        7.9500000000
O                17.6740000000       41.9210000000        6.8470000000
C                17.0410000000       41.0100000000        9.9420000000
C                16.5730000000       41.3330000000       11.3330000000
C                17.4200000000       41.9480000000       12.2150000000
C                15.2790000000       41.0360000000       11.7570000000
C                17.0330000000       42.2630000000       13.5230000000
C                14.8950000000       41.3410000000       13.0590000000
C                15.7510000000       41.9730000000       13.9350000000
H                15.4980000000       42.6960000000        8.6280000000
H                18.1900000000       42.8660000000        9.8410000000
H                16.2440000000       40.5510000000        9.3540000000
H                17.8860000000       40.3190000000        9.9950000000
H                18.4280000000       42.1710000000       11.8970000000
H                14.5850000000       40.5560000000       11.0850000000
H                17.7250000000       42.7470000000       14.1960000000
H                13.8980000000       41.0810000000       13.3830000000
H                15.4320000000       42.2200000000       14.9360000000
N                20.5830000000       35.2710000000        9.9290000000
C                20.1690000000       36.7130000000        9.8040000000
C                20.9690000000       37.5210000000       10.8320000000
O                21.2650000000       37.0250000000       11.9230000000
C                18.6460000000       36.8290000000       10.1110000000
C                17.8470000000       36.2400000000        8.9880000000
C                17.3620000000       34.9540000000        8.8390000000
C                17.3390000000       36.9680000000        7.8580000000
N                16.6520000000       34.8250000000        7.6580000000
C                16.5990000000       36.0470000000        7.0810000000
C                17.4060000000       38.3200000000        7.4460000000
C                15.9400000000       36.4200000000        5.9280000000
C                16.7940000000       38.6470000000        6.2600000000
C                16.0530000000       37.7110000000        5.5270000000
H                20.5330000000       34.8480000000       10.8500000000
H                20.3890000000       37.0400000000        8.7870000000
H                18.4400000000       36.3100000000       11.0480000000
H                18.3970000000       37.8850000000       10.2150000000
H                17.5490000000       34.0990000000        9.4580000000
H                16.2480000000       33.9780000000        7.2810000000
H                17.9750000000       39.0520000000        7.9990000000
H                15.3760000000       35.6980000000        5.3490000000
H                16.8520000000       39.6630000000        5.8920000000
H                15.5730000000       38.0430000000        4.6110000000
N                18.7620000000       40.4380000000       17.0160000000
C                18.0630000000       39.5570000000       16.0420000000
C                17.7260000000       38.2200000000       16.7000000000
O                16.7780000000       37.5120000000       16.2650000000
C                18.9090000000       39.4090000000       14.7530000000
C                20.2150000000       38.6800000000       15.0610000000
C                18.0070000000       38.7080000000       13.7000000000
H                19.5940000000       40.9120000000       16.6940000000
H                17.1070000000       40.0300000000       15.7810000000
H                19.1340000000       40.4180000000       14.3980000000
H                20.7820000000       38.5420000000       14.1440000000
H                20.8160000000       39.2610000000       15.7520000000
H                20.0220000000       37.7000000000       15.4880000000
H                18.5940000000       38.4740000000       12.8150000000
H                17.5920000000       37.7930000000       14.1050000000
H                17.1990000000       39.3730000000       13.4140000000
N                14.4680000000       39.1480000000       18.8990000000
C                13.4420000000       39.6780000000       18.0130000000
C                13.0630000000       38.6310000000       16.9570000000
O                11.8920000000       38.5120000000       16.5680000000
C                13.8820000000       41.0150000000       17.3950000000
O                13.9490000000       41.9610000000       18.4670000000
C                12.8990000000       41.5080000000       16.3470000000
H                15.3780000000       39.5900000000       18.8900000000
H                12.5380000000       39.8590000000       18.6110000000
H                14.8820000000       40.8920000000       16.9540000000
H                14.6760000000       41.7780000000       19.0930000000
H                13.1990000000       42.4990000000       16.0210000000
H                12.8870000000       40.8300000000       15.5020000000
H                11.9040000000       41.5660000000       16.7780000000
N                14.0420000000       37.8130000000       16.5620000000
C                13.6870000000       36.7560000000       15.6220000000
C                12.7190000000       35.7490000000       16.2560000000
O                11.7880000000       35.2460000000       15.5960000000
H                15.0370000000       37.9520000000       16.7060000000
H                13.2000000000       37.1680000000       14.7340000000
H                14.6060000000       36.2420000000       15.3380000000
N                10.5650000000       36.4580000000       18.5490000000
C                 9.2900000000       37.1830000000       18.5200000000
C                 8.5860000000       37.1660000000       17.1540000000
O                 7.3780000000       37.0020000000       17.1240000000
C                 9.4850000000       38.6290000000       18.9820000000
O                10.0040000000       38.5870000000       20.2980000000
C                 8.2280000000       39.4800000000       18.8650000000
H                11.4050000000       36.9880000000       18.7460000000
H                 8.6030000000       36.6770000000       19.2140000000
H                10.2760000000       39.0730000000       18.3630000000
H                 9.3110000000       38.3130000000       20.9290000000
H                 8.4080000000       40.4680000000       19.2780000000
H                 7.9420000000       39.5960000000       17.8250000000
H                 7.4020000000       39.0280000000       19.4090000000
N                 9.3730000000       37.3430000000       16.0800000000
C                 8.7850000000       37.2280000000       14.7070000000
C                 8.2650000000       35.8090000000       14.4540000000
O                 7.1940000000       35.6060000000       13.8450000000
C                 9.8210000000       37.6640000000       13.6860000000
C                10.0140000000       39.2100000000       13.7440000000
C                 9.5170000000       37.2200000000       12.2620000000
C                11.2610000000       39.5840000000       12.9410000000
H                10.3670000000       37.5080000000       16.1890000000
H                 7.9050000000       37.8830000000       14.6600000000
H                10.7670000000       37.1960000000       13.9870000000
H                 9.1330000000       39.7020000000       13.3310000000
H                10.1490000000       39.5070000000       14.7830000000
H                10.3800000000       37.3740000000       11.6220000000
H                 9.2630000000       36.1650000000       12.2290000000
H                 8.6780000000       37.7820000000       11.8560000000
H                11.5030000000       40.6330000000       13.1000000000
H                12.1080000000       38.9750000000       13.2470000000
H                11.1030000000       39.4490000000       11.8750000000
N                 9.0000000000       34.8020000000       14.9110000000
C                 8.4900000000       33.4420000000       14.7240000000
C                 7.1990000000       33.1720000000       15.5230000000
O                 6.3620000000       32.3940000000       15.0660000000
C                 9.4930000000       32.3730000000       15.1360000000
C                10.8610000000       32.4280000000       14.3970000000
C                11.7640000000       31.2670000000       14.8440000000
C                10.6460000000       32.4530000000       12.9010000000
H                 9.9250000000       34.9440000000       15.3040000000
H                 8.2220000000       33.3270000000       13.6690000000
H                 9.6640000000       32.4570000000       16.2110000000
H                 9.0260000000       31.4070000000       14.9380000000
H                11.3640000000       33.3540000000       14.6820000000
H                12.7050000000       31.3110000000       14.3040000000
H                11.9520000000       31.3210000000       15.9110000000
H                11.2950000000       30.3080000000       14.6260000000
H                11.5550000000       32.1710000000       12.3720000000
H                 9.8510000000       31.7780000000       12.5990000000
H                10.3920000000       33.4590000000       12.5880000000
N                 7.0880000000       33.7850000000       16.6820000000
C                 5.9990000000       33.5880000000       17.6270000000
C                 6.2860000000       32.4580000000       18.5740000000
O                 7.2790000000       31.7050000000       18.4720000000
H                 7.8960000000       34.2710000000       17.0590000000
H                 5.8570000000       34.5170000000       18.1820000000
H                 5.0860000000       33.3650000000       17.0670000000
N                 2.5310000000       36.8580000000       13.7270000000
C                 3.8560000000       36.1480000000       13.8030000000
C                 3.8110000000       34.9900000000       12.7720000000
O                 2.7600000000       34.6290000000       12.2320000000
C                 4.1150000000       35.6270000000       15.2030000000
O                 3.1890000000       34.5450000000       15.4740000000
C                 4.1270000000       36.6980000000       16.2680000000
H                 1.7370000000       36.4340000000       14.1840000000
H                 4.6070000000       36.8800000000       13.5050000000
H                 5.0930000000       35.1280000000       15.1800000000
H                 2.3380000000       34.9490000000       15.7190000000
H                 4.1300000000       36.2200000000       17.2440000000
H                 5.0180000000       37.3080000000       16.1660000000
H                 3.2420000000       37.3280000000       16.1870000000
N                 4.9830000000       34.4110000000       12.4710000000
C                 5.0060000000       33.2910000000       11.5240000000
C                 4.1130000000       32.1630000000       12.0350000000
O                 3.2900000000       31.6220000000       11.2850000000
C                 6.4610000000       32.8060000000       11.2590000000
C                 7.1420000000       33.9240000000       10.4760000000
C                 6.4140000000       31.4910000000       10.4500000000
C                 8.6820000000       33.7920000000       10.3980000000
H                 5.8450000000       34.7370000000       12.9020000000
H                 4.5570000000       33.6320000000       10.5810000000
H                 6.9490000000       32.6330000000       12.2190000000
H                 6.7270000000       33.9330000000        9.4660000000
H                 6.9090000000       34.8910000000       10.9260000000
H                 7.4240000000       31.1440000000       10.2520000000
H                 5.8880000000       30.7160000000       10.9990000000
H                 5.9060000000       31.6500000000        9.5040000000
H                 9.0670000000       34.4460000000        9.6200000000
H                 9.1110000000       34.1070000000       11.3400000000
H                 8.9770000000       32.7690000000       10.1930000000
N                 4.3060000000       31.7330000000       13.2840000000
C                 3.4860000000       30.5860000000       13.7090000000
C                 2.0220000000       30.9550000000       13.9140000000
O                 1.1420000000       30.1080000000       13.7120000000
C                 4.0550000000       29.9820000000       14.9960000000
C                 5.3590000000       29.2580000000       14.6640000000
C                 6.1490000000       28.9630000000       15.9330000000
N                 7.4410000000       28.3790000000       15.5620000000
C                 8.5230000000       28.6230000000       16.2740000000
N                 8.4620000000       29.5200000000       17.2610000000
N                 9.6060000000       27.8670000000       16.0910000000
H                 5.0400000000       32.0780000000       13.9080000000
H                 3.4980000000       29.8430000000       12.9020000000
H                 4.2340000000       30.7870000000       15.7080000000
H                 3.3150000000       29.3040000000       15.4180000000
H                 5.1480000000       28.3420000000       14.1110000000
H                 5.9680000000       29.9000000000       14.0270000000
H                 6.2680000000       29.9120000000       16.4460000000
H                 5.6040000000       28.2840000000       16.5930000000
H                 7.4340000000       27.7440000000       14.7730000000
H                 7.7240000000       30.1840000000       17.4140000000
H                 9.3210000000       29.6370000000       17.8150000000
H                 9.6700000000       27.2310000000       15.3020000000
H                10.4740000000       28.0930000000       16.5650000000
N                 1.7850000000       32.1980000000       14.2980000000
C                 0.4330000000       32.6570000000       14.5220000000
C                -0.3560000000       32.8680000000       13.2210000000
O                -1.5810000000       33.0040000000       13.1930000000
H                 2.5350000000       32.8590000000       14.4650000000
H                -0.1020000000       31.9250000000       15.1320000000
H                 0.4590000000       33.6080000000       15.0550000000
N                 0.3760000000       32.9750000000       12.1130000000
C                -0.2420000000       33.0640000000       10.8060000000
C                -0.3110000000       31.7450000000       10.0480000000
O                -1.2030000000       31.5850000000        9.1900000000
C                 0.5510000000       34.0540000000        9.9500000000
C                 0.3870000000       35.5080000000       10.3900000000
O                -0.5810000000       35.8140000000       11.1300000000
O                 1.2120000000       36.3070000000        9.9230000000
H                 1.3780000000       33.1140000000       12.1550000000
H                -1.2610000000       33.4460000000       10.9470000000
H                 1.6140000000       33.8070000000        9.9770000000
H                 0.2230000000       33.9870000000        8.9090000000
N                 0.6280000000       30.8390000000       10.3270000000
C                 0.8170000000       29.6990000000        9.4420000000
C                 0.7900000000       28.3160000000       10.1270000000
O                 0.8070000000       27.3240000000        9.4000000000
C                 2.1940000000       29.8380000000        8.7280000000
C                 2.2120000000       30.9970000000        7.7820000000
C                 1.2020000000       31.2000000000        6.8300000000
C                 3.2300000000       31.9250000000        7.8480000000
C                 1.2610000000       32.3320000000        6.0350000000
C                 3.3060000000       33.0280000000        7.0290000000
C                 2.3030000000       33.2370000000        6.1060000000
H                 1.4310000000       31.1330000000       10.8750000000
H                 0.0070000000       29.6950000000        8.7070000000
H                 2.9640000000       29.9720000000        9.4890000000
H                 2.3740000000       28.9080000000        8.1850000000
H                 0.3820000000       30.5060000000        6.7230000000
H                 3.9970000000       31.7720000000        8.5950000000
H                 0.4810000000       32.4810000000        5.2960000000
H                 4.1290000000       33.7190000000        7.1100000000
H                 2.3190000000       34.0940000000        5.4520000000
N                 6.7140000000       24.8540000000       11.6020000000
C                 7.1750000000       25.4950000000       10.3970000000
C                 8.6190000000       26.0190000000       10.3920000000
O                 9.2200000000       26.0400000000        9.3120000000
C                 6.1630000000       26.6390000000       10.0810000000
C                 6.6390000000       27.6350000000        9.1010000000
C                 4.8920000000       25.9030000000        9.6250000000
H                 6.3460000000       23.9200000000       11.4320000000
H                 7.1370000000       24.7580000000        9.5900000000
H                 5.9510000000       27.1550000000       11.0230000000
H                 5.8350000000       28.3230000000        8.8410000000
H                 7.4620000000       28.2260000000        9.4980000000
H                 6.9860000000       27.1600000000        8.1820000000
H                 4.0890000000       26.6070000000        9.4130000000
H                 5.0890000000       25.3450000000        8.7130000000
H                 4.5530000000       25.2010000000       10.3790000000
N                 9.1600000000       26.4220000000       11.5510000000
C                10.4800000000       27.1300000000       11.5450000000
C                11.1650000000       26.9300000000       12.8990000000
O                10.5490000000       26.4950000000       13.8850000000
C                10.2270000000       28.6230000000       11.1990000000
S                 9.0840000000       29.2890000000       12.4380000000
H                 8.5370000000       26.6120000000       12.3430000000
H                11.0970000000       26.6980000000       10.7550000000
H                11.1500000000       29.2010000000       11.1760000000
H                 9.7320000000       28.6970000000       10.2300000000
H                 9.9840000000       29.3770000000       13.4260000000
O                 6.1130000000       38.1350000000       11.4670000000
H                 6.3980000000       37.6560000000       12.2530000000
H                 5.3810000000       38.7050000000       11.7260000000
O                 7.0017300684       40.6776347210       11.1820000000
H                 6.3017429554       41.3300479654       11.3010000000
H                 7.4640177611       40.9549289496       10.3690000000
N                 4.9311643021       42.0779598287       16.1920000000
C                 4.6852349027       41.7639220435       14.7920000000
C                 3.2258415867       41.9836654150       14.4520000000
O                 2.3487225709       41.6908801147       15.2960000000
C                 5.0171933440       40.2789531572       14.6770000000
C                 6.1739796554       40.1893404923       15.7030000000
C                 5.6505085122       41.0060191086       16.8890000000
H                 5.3271866229       42.3620290480       14.1310000000
H                 4.1713929494       39.6659224136       14.9860000000
H                 5.3070901130       39.9948372243       13.6700000000
H                 6.4163419072       39.1595567583       15.9720000000
H                 7.0618710846       40.6534674254       15.2730000000
H                 4.9749420553       40.4081345359       17.5060000000
H                 6.4539313756       41.4144498892       17.5010000000
H                21.4182299005       35.9625206110       14.7895158567
H                20.5909988221       32.1372727494       13.7568605841
H                18.1414952752       31.5000567892       12.1273882592
H                15.8770770143       28.7039982352       10.4883741650
H                 7.3342841853       33.6268316119        5.0374366575
H                12.0217828587       42.3456792915        5.4676103971
H                10.8447054775       43.7492906811        7.6501655521
H                19.1814252053       41.5641325046        7.9944615037
H                20.0586098677       34.7613229615        9.4043626914
H                21.2543792054       38.4558314820       10.6206973512
H                18.2033114444       41.0897679396       17.2863065865
H                18.2592908708       37.8995257528       17.4828774515
H                14.1880342714       39.2074026918       19.7522821989
H                12.8286184385       35.4853643973       17.2143736572
H                10.5341687895       35.8212961119       19.1843405349
H                 5.6657692409       32.2751316050       19.3368059750
H                 2.6054811698       37.6737833905       14.0997599967
H                 0.7599238443       28.2526112327       11.1245356079
H                 7.3971512384       24.7801625279       12.1832507318
H                12.1341980255       27.1515396482       13.0065889014
H                 5.5385493068       42.7396274977       16.2492656254
H                 2.9711075731       42.3591189182       13.5608517243
