 131 
 
N                 5.4946268816       40.7300722588       87.3815443838
C                 5.5361034021       41.7056669997       86.3007358092
C                 5.3304861234       43.1078024394       86.8758641719
O                 6.0732411537       44.0540306810       86.6199959047
C                 4.4489142287       41.3699765126       85.2665218095
C                 4.6234256906       42.1231698210       83.9717900001
C                 5.7308240639       41.8674788220       83.1679721641
C                 3.6900590856       43.0602536840       83.5481540902
C                 5.8901149877       42.5020344619       81.9551490464
C                 3.8476054826       43.7138522306       82.3436540359
C                 4.9428998534       43.4315136555       81.5241343227
O                 5.0396452419       44.0605183281       80.3272272604
H                 4.7750478102       40.0174772553       87.3387225426
H                 6.5352127546       41.6825846308       85.8437473348
H                 4.5159472255       40.2972627302       85.0747358077
H                 3.4752433064       41.5732936549       85.7116879022
H                 6.4682160118       41.1536898861       83.4989958612
H                 2.8433405712       43.2826351481       84.1782681591
H                 6.7468623248       42.2852341456       81.3374165140
H                 3.1658052936       44.4957771880       82.0444076579
H                 5.8977355774       43.8373166305       79.9174588884
N                 4.2325624441       43.2156528830       87.6228843727
C                 3.9103222848       44.4210930953       88.3519784682
C                 5.1699953423       45.0413938511       88.9534220160
O                 5.4153615215       46.2397127439       88.7883079269
C                 2.8867580327       44.0900205756       89.4404584288
C                 2.5840717015       45.3023291173       90.3102650339
C                 1.2628575809       45.1521830707       91.0592987073
N                 1.0071891360       43.8317731155       91.6260622556
C                 1.4275855317       43.3965996527       92.8221305101
N                 0.6587977482       42.4995640688       93.4640535612
N                 2.5131833780       43.8724071792       93.4071978764
H                 3.7121810415       42.3827608089       87.8738928413
H                 3.4749643263       45.1503904330       87.6547388180
H                 1.9835234941       43.7226618474       88.9530041612
H                 3.2891489059       43.2887586625       90.0606306689
H                 3.4094812765       45.4525670803       91.0040573632
H                 2.5010079962       46.1983160677       89.6939370826
H                 1.2274624011       45.8933373469       91.8640889209
H                 0.4402223307       45.3415977966       90.3714954378
H                 0.1948406763       43.3613642965       91.2581357178
H                -0.2291226202       42.2010496865       93.0964747320
H                 0.9520590272       42.1002251714       94.3380415975
H                 3.3516074502       44.2072340561       92.8765540144
H                 2.7717046566       43.4719458351       94.2944215956
N                 8.5949260198       44.0963516003       88.7611738912
C                 9.9372879433       44.0175986241       88.2301251496
C                10.0129305619       44.1911169696       86.7130465004
O                11.0691936786       43.9786338078       86.1107926723
C                10.6468745875       42.6922745701       88.5857471612
C                10.5516147461       42.3311727411       90.0370865089
C                 9.5640149762       41.4468559152       90.4606383090
C                11.4310577646       42.8347901031       90.9853449657
C                 9.4438244445       41.0783111437       91.7811019899
C                11.3181376807       42.4762501591       92.3194432687
C                10.3094997916       41.6106471108       92.7328088251
O                10.1203924198       41.2582607696       94.0423221468
H                 7.9628435539       43.3357305789       88.5354677461
H                10.4948049609       44.8493905972       88.6833681078
H                10.1760284808       41.9053511425       87.9914476193
H                11.6874274501       42.7924304506       88.2746044534
H                 8.8715351361       41.0680076027       89.7316453430
H                12.2114879830       43.5148380377       90.6773352669
H                 8.6615005495       40.4143127441       92.1183066954
H                11.9769232574       42.9150335156       93.0568136365
H                10.7503657876       41.7282411183       94.6057594535
N                 8.9001990974       44.5499738592       86.0666046474
C                 8.9859864369       44.7873564420       84.6271886179
C                10.1290617700       45.7755935234       84.3753094363
O                10.3892363605       46.7008425447       85.1450163881
C                 7.6619696544       45.2641069311       84.0188837831
C                 7.4928047079       46.7862167471       83.9635014869
C                 6.1198615999       47.2528902958       84.4429948264
C                 6.0641819866       47.1514533114       85.9672669985
N                 4.7793231673       47.6457004627       86.5361880136
H                 8.0282256655       44.6866059458       86.5611105502
H                 9.2891988075       43.8383872246       84.1630067384
H                 7.5934774355       44.8540829071       83.0112744597
H                 6.8593934322       44.8039202830       84.6002406268
H                 8.2497779059       47.2661212468       84.5814029467
H                 7.6666841757       47.1362692847       82.9472686638
H                 5.9798978118       48.2923015343       84.1306753523
H                 5.3446564185       46.6411635254       83.9797216925
H                 6.1860508591       46.1138081824       86.2612479526
H                 6.8794237436       47.7301654751       86.3995429350
H                 4.7779328269       47.3517112442       87.5455756011
H                 4.7023288689       48.6446913604       86.4504637750
H                 3.9850780896       47.2118287485       86.0296407425
N                10.8271644224       45.5523610576       83.2767239904
C                11.9283361269       46.3975676825       82.8641621492
C                11.4154220975       47.7180150247       82.2544185781
O                10.2407308106       48.0358357656       82.2161517144
C                12.7883009960       45.6269410414       81.8619728048
C                14.2173441004       46.1529009854       81.6061998024
O                15.1097404764       45.8046657967       82.4259672363
O                14.4540830594       46.8156934815       80.5780859742
H                10.5266774906       44.8867711075       82.5754006368
H                12.5121700434       46.6653716996       83.7604483211
H                12.8932708553       44.6086072734       82.2454290538
H                12.2532658249       45.5872238455       80.9106748268
N                 9.1329466925       46.3596836052       78.1267701723
C                 8.1126318425       45.6049105402       78.8030492686
C                 8.4344893284       44.1452328173       79.0661693410
O                 7.5564109066       43.4179003103       79.5338424012
H                 9.0572288077       46.5135934706       77.1358539359
H                 7.9667809896       46.0524375646       79.7946520969
H                 7.1717232669       45.6728655614       78.2539669452
N                10.1448665767       41.2293845227       81.3610603873
C                10.6828751001       40.9906440531       82.6876029591
C                11.8101775147       39.9720542228       82.5244426377
O                11.6260218084       38.8700825348       82.0133814834
C                 9.6316962701       40.5404667720       83.6987533275
C                 8.8011875591       39.3794508923       83.1877274599
C                10.3522883762       40.1881903966       84.9931047924
H                 9.7675797618       40.4348656909       80.8529473190
H                11.1017876168       41.9476859801       83.0236339862
H                 8.9744074329       41.4004970123       83.8881448269
H                 8.0994866641       39.0553896791       83.9573369822
H                 8.2386788648       39.6504153119       82.2995874009
H                 9.4579070478       38.5451262655       82.9517611931
H                 9.6334942388       39.9152401868       85.7688389966
H                11.0245758869       39.3448668763       84.8503643191
H                10.9277384985       41.0330564961       85.3669716431
H                 6.2739053672       40.2807715962       87.4107669177
H                 5.8012246513       44.4760046570       89.4843500891
H                 8.6285437314       44.1224392180       89.6601673760
H                12.0619752096       48.3710006525       81.8599837380
H                 9.1767573139       47.1872920558       78.4776902229
H                 9.3460312602       43.7892428067       78.8603480133
H                 9.4665783823       41.8185980641       81.4135249274
H                12.7334450886       40.1934928442       82.8383565174
