 260 
 
N                32.8542503732       -6.1773953667      -21.5609098084
C                32.6021572575       -5.1278406134      -22.5483042460
C                33.8222350825       -4.1924146851      -22.5154968485
O                34.8305119792       -4.4540449882      -23.1557238984
C                31.2652742766       -4.4386699765      -22.2840539896
H                33.7992961259       -6.2289881210      -21.1964293628
H                32.5844771723       -5.5918843135      -23.5461252463
H                31.1633226676       -3.5704059561      -22.9278278070
H                30.4669082244       -5.1423268264      -22.4995802371
H                31.1831432073       -4.1455806384      -21.2405607179
N                33.6844084294       -3.0925399019      -21.7630224622
C                34.7467963549       -2.1561377018      -21.4873756770
C                35.0799829618       -2.2643687837      -20.0032999918
O                34.3302620451       -2.8382866163      -19.2208669584
C                34.3009936100       -0.7129052966      -21.7817190643
C                33.6931614825       -0.5343507300      -23.1778964262
C                33.2200397385        0.9094840278      -23.3377211537
C                34.6862419357       -0.8977268948      -24.2785457493
H                32.8725689860       -2.9924117730      -21.1720323482
H                35.6052841734       -2.4364077992      -22.1030164641
H                33.5547210917       -0.4181850438      -21.0385492879
H                35.1599403295       -0.0488202250      -21.6722753098
H                32.8264327856       -1.1984423917      -23.2638875450
H                32.7375459597        1.0471529382      -24.3019219888
H                32.5084931904        1.1761023376      -22.5593593681
H                34.0677756932        1.5876341675      -23.2776151544
H                34.2610205953       -0.6788585988      -25.2553590314
H                35.6076105272       -0.3292450631      -24.1729196005
H                34.9280001254       -1.9575341458      -24.2538881267
N                36.2253648110       -1.6934007003      -19.6156996317
C                36.5222309500       -1.5643809317      -18.1962927992
C                35.5879186575       -0.4570021290      -17.6718605910
O                35.7947202590        0.7270090859      -17.8616301611
C                38.0050989401       -1.2945711543      -17.9795761432
C                38.8443726182       -2.3909939093      -18.6480182609
C                40.1910348642       -2.5888678952      -17.9531256553
C                40.9980246504       -3.6632131036      -18.6759657434
N                42.2207990955       -4.0225272147      -17.9041799819
H                36.7709478069       -1.1428682139      -20.2624066842
H                36.2430228205       -2.5164356540      -17.7315842772
H                38.2568645214       -0.3094543339      -18.3734301149
H                38.1835213686       -1.2762637633      -16.9037977569
H                38.2860910792       -3.3282865642      -18.6138952059
H                39.0044748291       -2.1374819366      -19.6958967902
H                40.7265889975       -1.6399367864      -17.9492956290
H                40.0050799307       -2.8914432675      -16.9219821668
H                40.3872766677       -4.5586962202      -18.7988261446
H                41.2915927572       -3.3026405224      -19.6619339488
H                42.7723053978       -4.7289383725      -18.4086895731
H                42.8074365989       -3.1879727340      -17.7532392227
H                41.9580087267       -4.4038379463      -16.9826588383
N                34.4825742431       -0.9472021358      -17.0764243090
C                33.4337491892       -0.1037272588      -16.5460749343
C                33.8688314239        0.4754258085      -15.2038356918
O                35.0311651653        0.7926541790      -15.0079249343
H                34.3154302053       -1.9428092663      -17.1040169806
H                33.2976605537        0.7588019606      -17.2113074086
H                32.5045426451       -0.6675190034      -16.4828941509
N                32.9181263359        0.5799714089      -14.2510830266
C                33.1484593807        1.3884562230      -13.0659515676
C                34.1755460922        0.8120266479      -12.0815512267
O                34.4712482265        1.4364217377      -11.0680613234
C                31.8700975909        1.7756654485      -12.3249398899
C                32.1445763906        3.0493334525      -11.5176997832
O                32.9480906151        3.8890520291      -11.8907888451
N                31.3766114816        3.1986380780      -10.4308067279
H                31.9609798622        0.3459983489      -14.4722652012
H                33.6173489460        2.3367956091      -13.3848740926
H                31.0808464094        2.0225737134      -13.0381734791
H                31.5303951381        0.9753238714      -11.6696384934
H                31.5397900614        3.9894830658       -9.8271554303
H                30.7815485864        2.4615897180      -10.0936622184
N                34.7767992878       -0.3349427660      -12.4200849113
C                36.0633391760       -0.6964212161      -11.8473211981
C                36.9470129178        0.5583339440      -11.8403611968
O                37.6886604040        0.8203105715      -10.8982563972
C                36.7203838531       -1.8418625469      -12.6401002124
C                38.0891620829       -2.1666004267      -12.0419213054
C                35.8404815598       -3.0916975202      -12.6276216999
H                34.4878788215       -0.8248989500      -13.2524164683
H                35.9301073914       -0.9901938468      -10.7991154154
H                36.8525196698       -1.5010849826      -13.6726662723
H                38.5772469511       -2.9434143521      -12.6222634795
H                38.7292289622       -1.2885930227      -12.0242987570
H                37.9765379552       -2.5192353791      -11.0193556752
H                36.3467063352       -3.8961268479      -13.1531274548
H                35.6563264342       -3.4109787906      -11.6052242443
H                34.8824758484       -2.9224750350      -13.1109589057
N                36.8499453619        1.3171696789      -12.9294492245
C                37.4619557105        2.6260681394      -13.0522660519
C                37.6277010760        3.3038412073      -11.6930452864
O                38.7223628343        3.7278520261      -11.3365515390
C                36.5853375004        3.5007984212      -13.9565651193
C                37.1252087807        4.9187694300      -14.1818149822
C                38.4252921127        4.9088323445      -14.9823434382
C                36.0601585760        5.7454967212      -14.9029711053
H                36.2299749247        1.0552930232      -13.6975573055
H                38.4689817768        2.5133366224      -13.4736599254
H                36.4665317238        2.9947333590      -14.9173726179
H                35.6017452072        3.5882533508      -13.4876460180
H                37.3118804190        5.3731952633      -13.2013968734
H                38.7242374903        5.9267866693      -15.2194847269
H                39.2263240441        4.4529792129      -14.4075766237
H                38.2884618587        4.3596434847      -15.9101403154
H                36.4090076294        6.7627723515      -15.0606213646
H                35.8286902252        5.3027020613      -15.8685863237
H                35.1473756792        5.7915415879      -14.3120908579
N                36.5090435266        3.4895204795      -10.9866606046
C                36.4990527474        4.2552516725       -9.7567329026
C                37.3826980545        3.6289522585       -8.6817032736
O                38.1359460475        4.2990260303       -7.9825368596
C                35.0823698033        4.3810341063       -9.2230506132
C                35.1131091422        5.2844142899       -7.9412501081
O                34.8834088529        4.7094513557       -6.8573302216
O                35.3619822437        6.4861508374       -8.1230262119
H                35.6402289940        3.0296921661      -11.2313895522
H                36.8964210529        5.2618023411       -9.9473044885
H                34.4572526986        4.8571335630       -9.9800794333
H                34.6793623824        3.4018943092       -8.9616620389
N                37.2542319233        2.3070615923       -8.5599367085
C                38.0537131974        1.5230546733       -7.6368690230
C                39.5447195281        1.7393050587       -7.9261297018
O                40.3694457065        1.9019966238       -7.0325975578
C                37.6627593493        0.0505520722       -7.7826023069
C                38.4027157450       -0.9042836020       -6.8377230671
C                37.9324494368       -0.7274251385       -5.3962991231
C                38.1768570491       -2.3455385711       -7.2943496301
H                36.6858597432        1.8122993143       -9.2327463194
H                37.8681939091        1.8955766678       -6.6218232038
H                36.5868705183       -0.0242728893       -7.6061749530
H                37.8674246123       -0.2341063632       -8.8161611002
H                39.4725583658       -0.6763550428       -6.8855712488
H                38.4377144820       -1.4314334204       -4.7403100753
H                38.1496032372        0.2767375093       -5.0407350094
H                36.8598010530       -0.8935229575       -5.3243753683
H                38.7016616230       -3.0319927091       -6.6363992622
H                37.1156837699       -2.5807348739       -7.2682661689
H                38.5463640796       -2.4873053964       -8.3063397127
N                39.8713906608        1.6882646029       -9.2180596871
C                41.2340889643        1.9043474332       -9.6651388430
C                41.7079582731        3.2999110767       -9.2461776688
O                42.7645999289        3.4600905127       -8.6422194647
C                41.3273467750        1.7214734399      -11.1725078626
H                39.1532917585        1.5327747464       -9.9176939372
H                41.8862723485        1.1880428516       -9.1464209021
H                42.3507379711        1.8681610956      -11.5068332746
H                41.0143305303        0.7163812492      -11.4419767205
H                40.6801326465        2.4428411376      -11.6638441989
N                40.9131894791        4.3120550175       -9.5888563527
C                41.2463726810        5.6660249656       -9.1898294509
C                41.5994894547        5.6601347404       -7.7029871309
O                42.6167056388        6.1886850883       -7.2617687686
C                40.0955670022        6.6519560131       -9.4587005570
C                39.8345189407        6.7829040540      -10.9638204047
C                40.4345029179        8.0108969414       -8.8480533763
C                38.6123404659        7.6388589578      -11.2817316333
H                40.0399904279        4.1457359966      -10.0766927757
H                42.1446602894        5.9912703183       -9.7352939042
H                39.1947153916        6.2577524478       -8.9739424223
H                40.7128027211        7.2201456801      -11.4401785296
H                39.6774690121        5.7902448127      -11.3860288128
H                39.5945055263        8.6889419249       -8.9568108252
H                40.6500812609        7.9168667387       -7.7865353125
H                41.3046914773        8.4365292349       -9.3423720324
H                38.3699099723        7.5542649515      -12.3376895993
H                37.7507595590        7.3124329575      -10.6998032799
H                38.7906513848        8.6862529534      -11.0581602100
N                40.7061802278        5.0607552877       -6.9183508311
C                40.8567854700        5.0676864460       -5.4787810670
C                42.2662788392        4.6182764469       -5.0912826744
O                42.9498782382        5.2775797350       -4.3138826932
C                39.8108100337        4.1690067228       -4.8339309257
H                39.8326995542        4.7145129323       -7.2979215266
H                40.7487911250        6.0984950028       -5.1064237887
H                39.9326708507        4.1699223569       -3.7542347171
H                38.8135879742        4.5290046822       -5.0811446791
H                39.9178339659        3.1555329136       -5.2113546127
N                42.6827043286        3.4512268914       -5.5856731238
C                43.9543723444        2.9197066244       -5.1289313180
C                45.1183212626        3.8020187361       -5.5954855582
O                46.0221044119        4.1106644459       -4.8240504423
C                44.1426182243        1.4375936304       -5.5023021331
C                44.4967018176        1.2289935662       -6.9713611558
C                45.2222233588        0.8252784758       -4.6096316602
H                42.1053094708        2.9200558645       -6.2248516394
H                43.9566985259        3.0023135928       -4.0316732510
H                43.1838174247        0.9460141194       -5.3007889669
H                44.4995948364        0.1672564301       -7.2019355484
H                43.7777847969        1.7236652490       -7.6177191397
H                45.4876656423        1.6203811491       -7.1871573146
H                45.4244068660       -0.1962844011       -4.9187542870
H                46.1391753976        1.4031490212       -4.6958074033
H                44.9141203974        0.8247669516       -3.5674928992
N                40.7061802278       -6.9183508311       -5.0607552877
C                40.8567854700       -5.4787810670       -5.0676864460
C                42.2662788392       -5.0912826744       -4.6182764469
O                42.9498782382       -4.3138826932       -5.2775797350
C                39.8108100337       -4.8339309257       -4.1690067228
H                39.8326995542       -7.2979215266       -4.7145129323
H                40.7487911250       -5.1064237887       -6.0984950028
H                39.9326708507       -3.7542347171       -4.1699223569
H                38.8135879742       -5.0811446791       -4.5290046822
H                39.9178339659       -5.2113546127       -3.1555329136
N                43.9922807705        5.5704665805      -19.6103591180
C                42.6144420663        5.1632704385      -19.7794295513
C                42.1648254678        5.3928461680      -21.2172174240
O                41.6618895806        4.4967493433      -21.8881013867
C                41.6949516425        5.9160398207      -18.8028990925
C                40.2297481116        5.7056331964      -19.1832619203
C                41.9366277327        5.4421810825      -17.3718724008
H                44.1975356584        6.2433471670      -18.8800296081
H                42.5332389869        4.0790719342      -19.6091783061
H                41.9438984692        6.9802835202      -18.8731368070
H                39.5837903740        6.1393660280      -18.4247910544
H                39.9993495654        6.1656235960      -20.1408731927
H                40.0167082871        4.6413826068      -19.2648224823
H                41.2685951852        5.9641553983      -16.6917772570
H                41.7445343006        4.3749498475      -17.2894182280
H                42.9587729372        5.6443011182      -17.0665352831
N                41.0070264667        2.2526676427      -23.5660527318
C                39.5966378491        2.0635102035      -23.8194719221
C                39.3412849918        1.7427431306      -25.2928807185
O                38.6031905634        0.8309725499      -25.6399622672
C                38.8193391574        3.3141624117      -23.4108772534
C                38.6763172047        3.4108248672      -21.8921335719
O                39.2673159630        2.6939258352      -21.1130253697
N                37.8302367526        4.3781229096      -21.4911426550
H                41.2573981947        2.9804515389      -22.9059498007
H                39.2306692892        1.2003635762      -23.2417819087
H                39.3480235806        4.1971101289      -23.7785217863
H                37.8270102427        3.2883031526      -23.8628233194
H                37.6263311248        4.4751377596      -20.5089027813
H                37.2914042362        4.9142293967      -22.1483124236
N                40.9699938093       -1.8432157406      -27.1742026503
C                40.6490637090       -3.0460073127      -26.4297914864
C                40.4695626921       -4.2561734361      -27.3745663596
O                39.3946054819       -4.8034172499      -27.5666289204
C                39.4238907715       -2.8522961122      -25.5391683914
C                39.7782004815       -2.0435870289      -24.3019152104
S                38.4578343323       -1.9620746103      -23.0572014646
C                38.4498368877       -3.6988766190      -22.5063004647
H                40.2048856631       -1.2513403618      -27.4629342958
H                41.5286848024       -3.2671187797      -25.8097411166
H                38.6350810336       -2.3500783705      -26.1048888246
H                39.0490471244       -3.8414578628      -25.2661906485
H                40.6532181498       -2.4602308638      -23.8018671916
H                39.9891981704       -1.0109977248      -24.5734589134
H                37.8386366747       -3.7529481707      -21.6126854656
H                38.0037875109       -4.3359431064      -23.2646093420
H                39.4686113766       -4.0051748149      -22.2960745205
H                32.3189071127       -6.0540627150      -20.8480306809
H                45.1477022965        4.1335079237       -6.5384869756
H                40.7841965424       -7.2326250810       -5.9004845003
H                42.6447786605       -5.4727903648       -3.7749557680
H                44.4967661734        4.8505958281      -19.4172773267
H                42.2764957790        6.2929481671      -21.6383422665
H                41.3575285297        1.4923778757      -23.2357380727
H                39.7836817291        2.2856073743      -26.0067319213
H                41.5019101523       -1.3147641193      -26.6764036064
H                41.2573659144       -4.6288060103      -27.8649856166
