 379 
 
N                 2.5518068603       95.0622778339       -1.6523444870
C                 1.7570781223       93.8653335516       -1.3285798742
C                 2.5748257385       92.8618025577       -0.4510364106
O                 2.3320582613       92.6592030982        0.7346169773
C                 1.2237871257       93.2597894620       -2.6402378268
H                 3.1349960484       95.0060686815       -2.4774925847
H                 0.9259995499       94.2111192128       -0.7021579935
H                 0.6975927725       92.3326843471       -2.4331330588
H                 0.5246708021       93.9552954728       -3.0995455328
H                 2.0212445597       93.0682344233       -3.3535606516
N                 2.0970912935       90.4249508494        2.9639631806
C                 1.9098148535       88.9747211614        2.8559214865
C                 3.0614550540       88.2965102109        3.6125250261
O                 2.9223771522       87.1668809883        4.0563604213
C                 1.6957543096       88.3638274394        1.4458793182
C                 1.1155829150       86.9142846848        1.4250229745
C                -0.3968667813       86.8315846048        1.6096357649
C                 1.4119116177       86.2679588432        0.0806189834
H                 2.3840069085       90.9607450223        2.1557602228
H                 1.0135440804       88.7286172047        3.4406381998
H                 1.0116986514       89.0161768295        0.9009564524
H                 2.6524470872       88.3425032006        0.9185641521
H                 1.6089905627       86.3385437638        2.2157724140
H                -0.7124506073       85.7957149763        1.7076720435
H                -0.7208760224       87.3771223779        2.4904475960
H                -0.8959635592       87.2543264796        0.7402296026
H                 1.0639408784       85.2389323857        0.0766322415
H                 0.9072361660       86.8019640290       -0.7198816278
H                 2.4789608041       86.2582507280       -0.1366482459
N                -1.1086599757       89.8776817777        8.6467229357
C                -1.8905752790       88.8787725230        7.9660419663
C                -2.9744573535       88.3060758780        8.9214635110
O                -4.1404475730       88.4113698551        8.5230524756
C                -0.9154020845       87.9476033001        7.2026592660
C                -1.4417338792       87.1637014214        5.9690400697
C                -2.3876440926       87.9403496133        5.0384597592
C                -0.2381248960       86.6454987275        5.1742981805
H                -0.1612216669       89.6285512335        8.8989730140
H                -2.4864431716       89.4124291362        7.2186467667
H                -0.1140313098       88.5995249694        6.8471914489
H                -0.4789148248       87.2326032657        7.9011475111
H                -2.0030572297       86.2950345390        6.3347571184
H                -2.5606745958       87.3528446605        4.1414189374
H                -3.3443459706       88.0943084335        5.5228994350
H                -1.9589339899       88.8982551111        4.7571982806
H                -0.5667284976       86.0717179113        4.3156904694
H                 0.3931727872       87.4608023891        4.8411736382
H                 0.3771394637       85.9864601628        5.7845785292
N                -5.1644102851       90.7012613940        8.5630777887
C                -5.7357407165       90.7578486094        7.2472040294
C                -6.8642042594       89.7688532182        7.3521016197
O                -7.9833024819       90.1537012285        7.6438571705
C                -4.7314788325       90.4942601615        6.1377859063
C                -5.1888719626       91.2241982532        4.8805630963
C                -5.6761851458       92.5911049580        5.3504440369
O                -6.8558019929       92.9119218167        5.3464863091
N                -4.7087442227       93.3953453127        5.8229899790
H                -4.5619027273       89.8997583906        8.7208828968
H                -6.2082271612       91.7360717893        7.1703747699
H                -3.7670057133       90.8808667526        6.4669271771
H                -4.6450334500       89.4357988800        5.9163113415
H                -4.3827197865       91.3355390202        4.1558599593
H                -6.0255143151       90.7123879194        4.4050004278
H                -3.7671420259       93.0616248187        5.9471903873
H                -4.9712866855       94.2529162930        6.2815433868
N               -10.4267310291       89.1392906914        7.8201284805
C               -11.1708482796       89.6861450432        6.7159353458
C               -11.8856145043       88.7109718718        5.7021018967
O               -12.9347367670       89.1674914103        5.2384302469
C               -10.2743071611       90.7347779531        6.0041300550
C                -9.1398958483       90.1272076290        5.1868187813
C                -9.6949133401       89.8829365887        3.7719247244
O                -9.9698924320       90.9086154335        3.1061811737
O                -9.8462282915       88.7004905400        3.4116555842
H                -9.4276372457       89.2548094019        7.6637656188
H               -12.0369240093       90.2310949605        7.1247208282
H               -10.8876491816       91.3403829064        5.3300346885
H                -9.8751772641       91.3968519494        6.7744665117
H                -8.3189679119       90.8411249907        5.1199115382
H                -8.7905403784       89.1788898296        5.5912937921
N               -11.5096629608       87.4423634672        5.3916784286
C               -12.3679923305       86.6921676394        4.4652593647
C               -12.5517918212       85.2125704052        4.7678418838
O               -11.6531982958       84.4293203564        5.0386684413
C               -12.0396309899       86.6999077721        2.9583525874
O               -13.1965880236       86.2773064968        2.2787390114
H               -10.5882756754       87.1066182014        5.6296899188
H               -13.3443586602       87.1861077175        4.5621119703
H               -11.6962678008       87.6891159376        2.6482983318
H               -11.2589651652       85.9714104671        2.7345250517
H               -13.8191060781       87.0146680888        2.2181028393
N               -11.7336596071       81.9531450494        0.0967077692
C               -10.8251444109       82.7548613667       -0.6942067023
C                -9.3737558741       82.7233552829       -0.1533676015
O                -8.4031567674       82.8736003354       -0.8835546499
C               -11.3938604423       84.2294673153       -0.6794766051
O               -12.1192755760       84.3493339206        0.5314299515
C               -12.2159997117       84.5577773196       -1.9501163308
H               -12.2473616621       82.5382958845        0.7556565860
H               -10.7961120641       82.3812971122       -1.7229927143
H               -10.5235188082       84.9040638557       -0.6461561663
H               -12.5189752224       85.2270088346        0.6427302660
H               -12.6093107595       85.5671699434       -1.8770997231
H               -11.5756269272       84.4825508448       -2.8220985646
H               -13.0395269511       83.8585944805       -2.0592444763
N                -9.2821264200       82.5949455629        1.1705929722
C                -8.0143753037       82.4456996791        1.8362310239
C                -7.3953076691       81.1347888494        1.4257082527
O                -6.3138665537       81.1337421890        0.8532541097
C                -8.1654502381       82.5275738065        3.3480911649
C                -8.9757321644       83.7484977031        3.8090910139
C                -8.7055222968       84.0786311808        5.2750863347
C                -8.6368408248       84.9580703671        2.9430299793
H               -10.1128820170       82.3216057985        1.6762347779
H                -7.3413706310       83.2264334305        1.4629830830
H                -8.6210191325       81.6083566606        3.7213594640
H                -7.1579452573       82.5795746762        3.7712703936
H               -10.0403867916       83.5276544579        3.7065514692
H                -9.3659247062       84.8758874215        5.5942638388
H                -8.9064193201       83.2086911562        5.8965281044
H                -7.6687400737       84.3722363910        5.4202391441
H                -9.0694275822       85.8491149492        3.3888388451
H                -7.5577045857       85.0914479944        2.8983977854
H                -9.0226125065       84.8501735850        1.9348686143
N                -6.9901635516       80.9810414906       -2.3854635538
C                -5.9078545876       81.8047503984       -2.8757079582
C                -4.5145399341       81.2838495406       -2.4214284317
O                -3.5341881040       81.2767631818       -3.1668885876
C                -6.1137354470       83.2839578078       -2.5104542071
C                -5.5830116090       83.6644644994       -1.1166411434
S                -3.7221658566       83.8488185378       -0.9157614656
C                -3.2345943975       85.2000040151       -2.0913364902
H                -7.4743546391       81.3259129303       -1.5648378956
H                -5.9005097967       81.6946246994       -3.9648630829
H                -5.5799899784       83.8861294421       -3.2495286261
H                -7.1765455707       83.5151381361       -2.5566738522
H                -6.0067611259       84.6197773912       -0.8166008994
H                -5.8179403419       82.9119841501       -0.3717893082
H                -2.3797942309       85.6598514685       -1.6163556579
H                -2.9762016450       84.7428298624       -3.0386656741
H                -4.0678546984       85.8778979004       -2.1937350353
N                -2.8641228631       78.4807897467       -4.6677060582
C                -2.3646980654       79.3324060672       -5.7428426023
C                -0.9533961569       79.6611593669       -5.3235811503
O                 0.0784445188       79.2108485242       -5.8141231234
C                -3.1722101302       80.6399915770       -5.9710446348
C                -4.6657202598       80.3841431130       -6.2861427576
C                -5.4684263641       81.6405793925       -6.6563040450
C                -6.9934370013       81.4909676217       -6.5824369061
N                -7.5508850549       80.6292845755       -7.6478504087
H                -3.6512878262       78.8997710233       -4.1933594796
H                -2.3527919611       78.7490673025       -6.6769653927
H                -3.1141546406       81.3036998943       -5.1184255987
H                -2.7059146218       81.1250625688       -6.8319119689
H                -4.7296357238       79.6631341092       -7.1051362753
H                -5.1323881003       79.9254781491       -5.4120816439
H                -5.1759727856       82.4492475695       -5.9857693190
H                -5.2254188042       81.9502195363       -7.6731008855
H                -7.2900022165       81.0649458365       -5.6238006798
H                -7.4423691074       82.4764031655       -6.7089578693
H                -8.5725181376       80.6815207488       -7.5902696296
H                -7.2531012891       80.8470370925       -8.6833605991
H                -7.2742316841       79.6576434973       -7.4819015305
N               -11.1950367621       93.5091937172       -1.1751967920
C                -9.8403058058       93.3062211318       -0.5660400304
C                -8.7997133270       94.1530248048       -1.3906430367
O                -8.3616914202       93.7155744611       -2.4400178070
C                -9.5185290262       91.7824341051       -0.5501625890
O                -8.5226203196       91.4715332635        0.3858863175
H               -11.9063284171       92.9577145217       -0.6616024844
H               -11.4725033779       94.5051863350       -1.1182290452
H               -11.1766896785       93.2385442749       -2.1743865133
H                -9.8568378960       93.6504803775        0.4722425572
H               -10.4328650150       91.2262362883       -0.3183663703
H                -9.1143644390       91.4779585047       -1.5153367040
H                -8.9076123904       91.3832998008        1.2750550388
N                -8.5693741781       95.3791035831       -0.8662987701
C                -7.6518190133       96.3610481892       -1.4624703413
C                -6.3161563950       95.5983076150       -1.7278743339
O                -5.8121518313       95.5257972869       -2.8370763610
C                -7.6732185192       97.7246094516       -0.7062856346
C                -7.1902635694       97.8002088062        0.7531945537
C                -5.7453884669       98.4131711322        0.8394758221
O                -4.8028084488       97.6386755017        1.1087741092
O                -5.6737847015       99.6355334876        0.6068602721
H                -8.8981257705       95.6089411281        0.0621005176
H                -8.0201220024       96.5851292818       -2.4735806868
H                -7.0576109454       98.4195736318       -1.2848133568
H                -8.6998042124       98.0893169708       -0.7651095553
H                -7.8323362810       98.4809654936        1.3126904035
H                -7.1915493768       96.8285730019        1.2539893225
N                -5.9412046928       94.8512566680       -0.6734864278
C                -4.7991007776       93.9607644124       -0.6654560184
C                -4.9355902409       92.6367958587       -1.5096324492
O                -4.1348542966       92.4075509400       -2.3920142462
C                -4.4915842153       93.7210238886        0.8121534932
H                -6.2527354060       95.1442489751        0.2410142390
H                -3.9460900321       94.4673051900       -1.1415626682
H                -3.6067948332       93.0966109113        0.9220438831
H                -4.2858471554       94.6754409439        1.2948349741
H                -5.3237862616       93.2344708965        1.3180957246
N                -5.8758544327       91.7109050917       -1.2081353274
C                -5.6721478144       90.3056575602       -1.5568528725
C                -6.3471130854       89.8748654194       -2.8427748121
O                -6.0409398839       88.8193202366       -3.3839299235
C                -6.2770165612       89.3309623156       -0.4910072707
C                -5.3614094294       88.7984356547        0.6347595682
C                -6.1497988823       88.0826574589        1.7380570646
C                -4.3371045967       87.8182428998        0.0586618148
H                -6.5125513805       91.8765677523       -0.4373152897
H                -4.5981702437       90.1349421285       -1.6737142506
H                -7.1330256373       89.8284079655       -0.0337124651
H                -6.6464112948       88.4510106695       -1.0213342478
H                -4.8304626652       89.6438392410        1.0864604775
H                -5.4741292409       87.7763650988        2.5320243524
H                -6.9241565492       88.7100727028        2.1752786632
H                -6.6274023701       87.1887549234        1.3435163129
H                -3.6569687119       87.4760664900        0.8354214418
H                -4.8285111514       86.9492163483       -0.3662498311
H                -3.7478566370       88.2996682002       -0.7169751880
N                -7.3948381967       90.5936815328       -3.2817290212
C                -8.3356710139       89.9880588125       -4.2334646416
C                -7.6995502240       89.7973207283       -5.6519269699
O                -8.1731901479       89.0896765985       -6.5223247928
C                -9.6363922341       90.8191833504       -4.3086896396
C               -10.9147294218       90.0051634502       -4.6443634682
C               -11.8167702459       89.7405200088       -3.4221401915
C               -12.9611379072       88.7544935862       -3.6856110531
N               -14.0140172578       89.3338777512       -4.5688902568
H                -7.5650215142       91.5269444953       -2.9242869597
H                -8.5530150984       88.9816796482       -3.8571782448
H                -9.7681788350       91.3321995743       -3.3587994341
H                -9.4807288036       91.5881303982       -5.0673351851
H               -11.4623191924       90.5854373733       -5.3866239065
H               -10.6095962383       89.0728681559       -5.1184122223
H               -11.2044734013       89.3330725073       -2.6175189541
H               -12.2308453366       90.6891272060       -3.0830612361
H               -12.5637743419       87.8574730248       -4.1613686377
H               -13.4227353390       88.4834326469       -2.7359619085
H               -14.7750412143       88.6573022958       -4.7233297326
H               -14.4113081684       90.1881569775       -4.1465527270
H               -13.6078155849       89.5819041740       -5.4844263435
N                -6.5927550455       90.5422303801       -5.7330205129
C                -5.6199588500       90.8410282768       -6.7546259250
C                -4.5440982883       89.6868782575       -6.8564250908
O                -3.9404324884       89.3415908699       -7.8616881487
C                -5.0911355109       92.2716371784       -6.3040374705
C                -4.0486350062       92.2064732992       -5.1688081328
C                -6.2245387519       93.2204155632       -5.8633975311
C                -3.4370623297       93.5465823451       -4.7522393587
H                -6.3967299858       91.0819730404       -4.9013463526
H                -6.0941830711       90.9207718221       -7.7378027706
H                -4.5937530946       92.7013247952       -7.1790058406
H                -4.4878008195       91.7413668234       -4.2906240015
H                -3.2271227491       91.5774568810       -5.5265627841
H                -5.8931042806       94.2423325959       -6.0283184155
H                -7.1294626186       93.0644960898       -6.4436086158
H                -6.4399153630       93.1416141114       -4.8015572411
H                -2.6330361517       93.3616961916       -4.0463859275
H                -3.0138084660       94.0530267205       -5.6190394014
H                -4.1529201687       94.2092331738       -4.2746618978
N                -4.3848162960       89.1114461086       -5.6637468337
C                -3.5618126362       87.9875929463       -5.3275114553
C                -4.3869049620       86.6875634057       -5.4926103230
O                -4.3377043440       85.7589601261       -4.7032420669
C                -3.0832878218       88.0267113919       -3.8642425604
C                -1.8177037164       88.8170626446       -3.5008815799
C                -2.0980022908       90.2477885656       -3.0630402271
C                -1.1224857632       88.0949341364       -2.3287593378
H                -5.1113811441       89.3161422676       -4.9864960999
H                -2.7246390769       87.9589680878       -6.0285412827
H                -3.9207351321       88.3452802499       -3.2477074992
H                -2.8830806757       86.9857116601       -3.6217224504
H                -1.1406417276       88.8243002115       -4.3600333864
H                -1.1736380137       90.8195005376       -3.0377213153
H                -2.7891938418       90.7431545573       -3.7225843091
H                -2.5082263788       90.2550281093       -2.0559667006
H                -0.2620778835       88.6702763292       -1.9932658613
H                -1.8045599274       87.9731677536       -1.4945232902
H                -0.7718778225       87.1115980999       -2.6349165501
N                -5.1865851279       86.6469541542       -6.5745199976
C                -6.0529814753       85.5048150218       -6.7656647352
C                -5.7147434090       84.8497188427       -8.1016140102
O                -6.2040603161       83.7821618435       -8.4223857148
C                -7.5703160326       85.8986876590       -6.5896935628
C                -8.5558933475       84.8957475266       -5.9619261040
O                -9.2269932745       84.1134536682       -6.6159667035
N                -8.7032389404       85.0015667141       -4.6271286927
H                -5.3341710139       87.4551481095       -7.1584487020
H                -5.7821859021       84.8001589853       -5.9675374970
H                -7.5675742706       86.7968557600       -5.9727729356
H                -7.9568954130       86.1820718450       -7.5689988303
H                -9.2849505262       84.3219227491       -4.1603770546
H                -8.0617007400       85.5354248820       -4.0643901410
N                -4.8126887041       85.4321544414       -8.9358094974
C                -5.0465904672       85.0981645324      -10.3310087880
C                -3.7133911821       84.7646416057      -10.8945139250
O                -3.3211275930       85.3021665869      -11.9262995433
C                -5.7026122598       86.1539145586      -11.2126769727
C                -6.4307649574       87.2424162359      -10.4416743123
O                -6.7396870850       87.1521116275       -9.2592829038
N                -6.6755664845       88.3606612278      -11.1614852980
H                -4.4775453519       86.3667592512       -8.7413947829
H                -5.6696446623       84.1905406436      -10.3167619455
H                -4.9357715875       86.6484964424      -11.8139237965
H                -6.4038856402       85.6663709151      -11.8888870637
H                -7.2750220288       89.0578391331      -10.7515940534
H                -6.4667224365       88.4296259823      -12.1432731911
N                -2.9956021176       83.9425371747      -10.1214394426
C                -2.0775688091       82.9967361279      -10.7082625159
C                -1.1636130173       83.6375331978      -11.7306537201
O                -0.0180462198       83.8438845720      -11.3362750871
C                -2.7340887305       81.6834082655      -11.2000202761
C                -1.6663657126       80.6128220235      -11.0448925239
C                -3.2711176842       81.6110241641      -12.6395604672
C                -1.3235376514       80.3446238309       -9.5941420858
H                -3.4973611617       83.5790224932       -9.3159920246
H                -1.4011148872       82.7094490810       -9.8989049359
H                -3.5720533086       81.4555364405      -10.5282934191
H                -2.0227287703       79.6936090203      -11.5133325320
H                -0.7673085801       80.9187789243      -11.5847780280
H                -3.7320461261       80.6355938126      -12.7732509857
H                -4.0341679636       82.3657764272      -12.8357095432
H                -2.4697931357       81.6669630908      -13.3677283265
H                -0.7029673735       79.4535430396       -9.5321654670
H                -0.7691354983       81.1501433202       -9.1214632444
H                -2.2308920400       80.1584046069       -9.0242275800
N                -0.6300232925       86.4807039666      -12.4871895859
C                -0.3219713611       87.6901155606      -11.7904391738
C                 0.3937795771       87.3757512154      -10.4765648534
O                 1.0331788308       88.1581041259       -9.7872194187
C                -1.6658025080       88.4030171907      -11.5050604754
O                -2.2787971429       87.7395085854      -10.4243694691
C                -2.5597547470       88.5347692410      -12.7533052704
H                -1.5880194863       86.1546352395      -12.3946552899
H                 0.3105042300       88.3262386634      -12.4133575737
H                -1.4258728227       89.4031269340      -11.1253830414
H                -2.7398796724       86.9637480035      -10.7692487123
H                -3.3552280702       89.2395023924      -12.5307494965
H                -1.9758043936       88.9169295463      -13.5839525037
H                -3.0065989242       87.5831555827      -13.0262220137
N                 3.8938911672       88.8244931757       -9.7508628106
C                 4.5005957115       89.5234144179       -8.6355741910
C                 5.6271026306       88.6628380724       -8.0152797489
O                 6.5771719555       89.1408685158       -7.4056034096
C                 3.4259802429       89.9412329031       -7.6348142789
C                 3.8564118402       91.1203403928       -6.7125917783
C                 3.4469545035       92.6186399280       -6.9442638506
O                 3.3697305528       93.4189893709       -5.9943699474
N                 3.1948224782       92.9631281746       -8.2220080171
H                 2.9245854870       88.5194394649       -9.6938076633
H                 5.0163947344       90.4131113832       -9.0283907120
H                 2.5188882761       90.2035355062       -8.1841163444
H                 3.1832180112       89.0930684086       -6.9957290264
H                 3.5050520929       90.8996865582       -5.7046250272
H                 4.9491148042       91.1414694487       -6.6683546705
H                 3.3871704151       92.3217876585       -8.9717637816
H                 3.0204310383       93.9295593326       -8.4500208872
H                 2.0010090349       95.7611309798       -1.7873483236
H                 3.3346512712       92.3505568533       -0.8526493956
H                 1.3233419471       90.8098977799        3.2152156626
H                 3.9272705627       88.7796524098        3.7426677190
H                -1.0349352970       90.6079037961        8.1258194173
H                -2.7057305626       87.8890802594        9.7897379872
H                -4.6670362295       91.4374889499        8.7065631007
H                -6.6954574036       88.7978759798        7.1826091387
H               -10.6567852378       89.5662648932        8.5782630940
H               -13.4667850151       84.8093314881        4.7542099000
H               -12.3210689429       81.5408211568       -0.4463753551
H                -7.8679424098       80.2755680852        1.6215553367
H                -7.6159639067       80.8945016837       -3.0264665003
H                -4.3891085695       80.9370807724       -1.4919025342
H                -3.1273253647       77.6903546592       -5.0082010153
H                -0.7910652991       80.3050630148       -4.5758935251
H                -1.5099107477       83.8574838295      -12.6426293785
H                -0.4853621777       86.5962072827      -13.3679461617
H                 0.3654088825       86.4494142101      -10.1009389007
H                 3.9134644421       89.3500128851      -10.4812366341
H                 5.6011987051       87.6669903138       -8.1025507533
