 515 
 
N                -0.8620000000       31.7780000000      100.1300000000
C                -0.3210000000       33.0830000000       99.8030000000
C                -1.0710000000       33.6720000000       98.6120000000
O                -1.5710000000       34.7940000000       98.6730000000
C                 1.1300000000       32.9470000000       99.4720000000
H                -0.1580000000       31.0400000000      100.1560000000
H                -0.4230000000       33.7510000000      100.6580000000
H                 1.5320000000       33.9300000000       99.2270000000
H                 1.6540000000       32.5360000000      100.3350000000
H                 1.2380000000       32.2780000000       98.6180000000
N                -1.1170000000       32.8930000000       97.5310000000
C                -1.8570000000       33.1980000000       96.3100000000
C                -3.1180000000       34.0140000000       96.6080000000
O                -3.4780000000       34.9100000000       95.8550000000
C                -2.2020000000       31.8730000000       95.6020000000
C                -2.7340000000       31.9510000000       94.1600000000
C                -3.6350000000       30.7260000000       93.8140000000
C                -4.4690000000       30.9160000000       92.5150000000
N                -5.6870000000       30.0360000000       92.3950000000
H                -0.6280000000       32.0000000000       97.4680000000
H                -1.2480000000       33.8090000000       95.6440000000
H                -1.2970000000       31.2670000000       95.5700000000
H                -2.9680000000       31.3690000000       96.1920000000
H                -3.3290000000       32.8570000000       94.0430000000
H                -1.8940000000       31.9650000000       93.4660000000
H                -3.0010000000       29.8500000000       93.6770000000
H                -4.3320000000       30.5580000000       94.6350000000
H                -4.8110000000       31.9500000000       92.4740000000
H                -3.8280000000       30.7010000000       91.6600000000
H                -6.4150000000       30.5120000000       91.8240000000
H                -5.4330000000       29.1380000000       91.9370000000
H                -6.0760000000       29.8360000000       93.3390000000
N                -3.7780000000       35.8920000000       99.5550000000
C                -3.6440000000       37.0350000000      100.4540000000
C                -3.3290000000       38.3650000000       99.7450000000
O                -2.3690000000       38.4480000000       98.9820000000
C                -2.5920000000       36.7190000000      101.5080000000
C                -2.8700000000       35.4150000000      102.2420000000
C                -1.9490000000       35.2480000000      103.4530000000
C                -2.3330000000       34.0260000000      104.2930000000
N                -1.2350000000       33.5910000000      105.2200000000
H                -2.9360000000       35.3250000000       99.4570000000
H                -4.6130000000       37.2010000000      100.9240000000
H                -1.6190000000       36.6340000000      101.0240000000
H                -2.5730000000       37.5230000000      102.2430000000
H                -3.9020000000       35.4110000000      102.5930000000
H                -2.7030000000       34.5770000000      101.5660000000
H                -0.9230000000       35.1180000000      103.1100000000
H                -2.0210000000       36.1330000000      104.0850000000
H                -3.2070000000       34.2700000000      104.8970000000
H                -2.5610000000       33.1940000000      103.6270000000
H                -1.5400000000       32.7610000000      105.7680000000
H                -0.3860000000       33.3410000000      104.6730000000
H                -0.9990000000       34.3610000000      105.8780000000
N                -4.1350000000       39.3990000000      100.0040000000
C                -3.9230000000       40.7220000000       99.4060000000
C                -4.0250000000       40.6690000000       97.8650000000
O                -3.3550000000       41.4180000000       97.1500000000
C                -2.5520000000       41.2940000000       99.8220000000
C                -2.2480000000       41.1810000000      101.2900000000
N                -2.7790000000       42.0290000000      102.2390000000
C                -1.4390000000       40.3240000000      101.9680000000
C                -2.3320000000       41.6920000000      103.4360000000
N                -1.5240000000       40.6590000000      103.3020000000
H                -4.9440000000       39.3520000000      100.6240000000
H                -4.7030000000       41.3930000000       99.7660000000
H                -1.7730000000       40.7550000000       99.2820000000
H                -2.5230000000       42.3520000000       99.5610000000
H                -0.8430000000       39.5310000000      101.5420000000
H                -2.5850000000       42.1800000000      104.3660000000
H                -1.0390000000       40.1840000000      104.0640000000
N                -4.8830000000       39.7920000000       97.3620000000
C                -4.9420000000       39.5020000000       95.9380000000
C                -5.0330000000       40.7370000000       95.0720000000
O                -4.6020000000       40.7460000000       93.9180000000
C                -6.1610000000       38.6370000000       95.6490000000
O                -6.0290000000       37.3520000000       96.2160000000
H                -5.5550000000       39.2620000000       97.9160000000
H                -4.0230000000       38.9760000000       95.6790000000
H                -7.0430000000       39.1190000000       96.0710000000
H                -6.2730000000       38.5360000000       94.5690000000
H                -6.0440000000       37.4140000000       97.1940000000
N                -5.6400000000       41.7690000000       95.6310000000
C                -5.9480000000       42.9770000000       94.8900000000
C                -4.6820000000       43.7510000000       94.6750000000
O                -4.1970000000       43.8900000000       93.5470000000
C                -6.8630000000       43.8610000000       95.7070000000
C                -7.1450000000       45.1400000000       94.9780000000
C                -8.1250000000       43.1230000000       96.0100000000
H                -5.9350000000       41.7990000000       96.6070000000
H                -6.4000000000       42.6970000000       93.9390000000
H                -6.3800000000       44.1220000000       96.6490000000
H                -7.8050000000       45.7580000000       95.5870000000
H                -6.2050000000       45.6630000000       94.8020000000
H                -7.6250000000       44.9080000000       94.0270000000
H                -8.7790000000       43.7660000000       96.5990000000
H                -8.6130000000       42.8540000000       95.0730000000
H                -7.8830000000       42.2230000000       96.5740000000
N                -4.1800000000       44.2720000000       95.7900000000
C                -2.8770000000       44.8910000000       95.8750000000
C                -1.9460000000       44.1800000000       94.9380000000
O                -1.3360000000       44.7820000000       94.0550000000
C                -2.2560000000       44.6240000000       97.2300000000
C                -1.4040000000       45.7850000000       97.6380000000
C                -3.3180000000       44.3240000000       98.2600000000
H                -4.6770000000       44.2770000000       96.6810000000
H                -3.0030000000       45.9500000000       95.6500000000
H                -1.6170000000       43.7430000000       97.1670000000
H                -0.9650000000       45.5770000000       98.6140000000
H                -0.6160000000       45.9240000000       96.8980000000
H                -2.0250000000       46.6790000000       97.6930000000
H                -2.8380000000       44.1370000000       99.2200000000
H                -3.9870000000       45.1810000000       98.3400000000
H                -3.8780000000       43.4430000000       97.9460000000
N                -1.8150000000       42.8790000000       95.1670000000
C                -0.9650000000       42.0700000000       94.3310000000
C                -1.2290000000       42.4230000000       92.8730000000
O                -0.3600000000       42.9600000000       92.1970000000
C                -1.2060000000       40.5960000000       94.6110000000
C                -0.5630000000       40.1190000000       95.8900000000
C                -1.0430000000       38.7160000000       96.2680000000
C                -0.1530000000       38.0840000000       97.3410000000
N                -0.7260000000       36.8290000000       97.8890000000
H                -2.2820000000       42.3690000000       95.9170000000
H                 0.0850000000       42.2580000000       94.5560000000
H                -2.2790000000       40.4230000000       94.6910000000
H                -0.7940000000       40.0090000000       93.7900000000
H                 0.5190000000       40.0880000000       95.7610000000
H                -0.8220000000       40.8000000000       96.7010000000
H                -2.0590000000       38.7760000000       96.6580000000
H                -1.0200000000       38.0770000000       95.3850000000
H                 0.8180000000       37.8500000000       96.9060000000
H                -0.0330000000       38.7880000000       98.1640000000
H                -0.0280000000       36.3550000000       98.4970000000
H                -1.5750000000       37.0410000000       98.4510000000
H                -0.9870000000       36.1880000000       97.1120000000
N                -2.4350000000       42.1670000000       92.3950000000
C                -2.7220000000       42.4020000000       90.9910000000
C                -2.7240000000       43.8660000000       90.6080000000
O                -1.9680000000       44.2890000000       89.7370000000
C                -4.0420000000       41.7600000000       90.5830000000
C                -3.8880000000       40.3220000000       90.1050000000
C                -2.9800000000       40.2080000000       88.8760000000
C                -2.5550000000       38.7580000000       88.6690000000
N                -1.9010000000       38.5290000000       87.3700000000
H                -3.2180000000       41.8050000000       92.9400000000
H                -1.9120000000       41.9230000000       90.4400000000
H                -4.7130000000       41.7580000000       91.4420000000
H                -4.4790000000       42.3390000000       89.7690000000
H                -3.4510000000       39.7250000000       90.9050000000
H                -4.8690000000       39.9270000000       89.8390000000
H                -3.5190000000       40.5440000000       87.9900000000
H                -2.0870000000       40.8160000000       89.0220000000
H                -1.8500000000       38.4800000000       89.4530000000
H                -3.4370000000       38.1200000000       88.7170000000
H                -1.1890000000       37.7760000000       87.4580000000
H                -2.6070000000       38.2440000000       86.6620000000
H                -1.4330000000       39.4010000000       87.0490000000
N                -1.3850000000       46.1510000000       91.5970000000
C                -0.0830000000       46.7510000000       91.5760000000
C                 0.5500000000       46.4160000000       90.2500000000
O                 0.9850000000       47.3080000000       89.5450000000
C                 0.7890000000       46.2480000000       92.7200000000
S                 2.4320000000       47.0050000000       92.7140000000
H                -1.4810000000       45.3110000000       92.1670000000
H                -0.1640000000       47.8290000000       91.7160000000
H                 0.3070000000       46.4880000000       93.6680000000
H                 0.9120000000       45.1690000000       92.6270000000
H                 3.0972234359       47.0029380448       93.7127359654
N                 7.3540000000       37.9890000000       86.7480000000
C                 7.3000000000       38.7860000000       87.9490000000
C                 5.9820000000       38.4980000000       88.6250000000
O                 5.9460000000       38.1410000000       89.7840000000
C                 7.4210000000       40.2600000000       87.5930000000
S                 9.0580000000       40.7360000000       86.9540000000
H                 7.5780000000       38.5060000000       85.8970000000
H                 8.1270000000       38.5550000000       88.6210000000
H                 6.6840000000       40.4950000000       86.8250000000
H                 7.2290000000       40.8520000000       88.4880000000
H                 9.1827609366       41.7440264185       86.3150027791
N                 4.9040000000       38.6090000000       87.8670000000
C                 3.5670000000       38.3480000000       88.3740000000
C                 3.4350000000       37.0960000000       89.2480000000
O                 2.8950000000       37.1610000000       90.3470000000
C                 2.5930000000       38.2570000000       87.2090000000
C                 1.1510000000       38.4390000000       87.6030000000
C                 0.2770000000       38.6820000000       86.3960000000
O                 0.1120000000       37.7420000000       85.5910000000
O                -0.2520000000       39.8080000000       86.2510000000
H                 4.9210000000       38.8810000000       86.8840000000
H                 3.3180000000       39.1930000000       89.0160000000
H                 2.8400000000       39.0340000000       86.4850000000
H                 2.6900000000       37.2740000000       86.7480000000
H                 0.7980000000       37.5390000000       88.1070000000
H                 1.0640000000       39.2980000000       88.2690000000
N                 5.6180000000       35.1030000000       90.8510000000
C                 6.3980000000       35.1300000000       92.0870000000
C                 5.7480000000       36.0030000000       93.1540000000
O                 5.6280000000       35.5920000000       94.3080000000
C                 7.8230000000       35.6110000000       91.8060000000
C                 8.5090000000       34.8770000000       90.6730000000
C                 9.6270000000       35.7040000000       90.0640000000
N                10.6580000000       36.0280000000       91.0410000000
C                11.7500000000       36.7470000000       90.7790000000
N                11.9710000000       37.2300000000       89.5510000000
N                12.6250000000       36.9870000000       91.7560000000
H                 6.1370000000       35.4380000000       90.0400000000
H                 6.4460000000       34.1120000000       92.4720000000
H                 7.7890000000       36.6680000000       91.5440000000
H                 8.4230000000       35.4690000000       92.7050000000
H                 8.9380000000       33.9490000000       91.0520000000
H                 7.7810000000       34.6590000000       89.8920000000
H                10.0900000000       35.1410000000       89.2540000000
H                 9.2150000000       36.6380000000       89.6810000000
H                10.5360000000       35.6800000000       91.9920000000
H                11.3010000000       37.0490000000       88.8040000000
H                12.8100000000       37.7790000000       89.3620000000
H                12.4560000000       36.6220000000       92.6930000000
H                13.4640000000       37.5360000000       91.5660000000
N                 5.3220000000       37.2020000000       92.7700000000
C                 4.6900000000       38.1080000000       93.7210000000
C                 3.3470000000       37.5730000000       94.2140000000
O                 2.8880000000       37.9390000000       95.2880000000
C                 4.5300000000       39.4940000000       93.1300000000
H                 5.3980000000       37.5710000000       91.8220000000
H                 5.3460000000       38.2140000000       94.5850000000
H                 4.0560000000       40.1420000000       93.8670000000
H                 5.5140000000       39.8850000000       92.8700000000
H                 3.9080000000       39.4290000000       92.2370000000
N                 2.7220000000       36.6920000000       93.4460000000
C                 1.4890000000       36.0530000000       93.8990000000
C                 1.7200000000       35.1830000000       95.1280000000
O                 0.8230000000       34.9890000000       95.9440000000
C                 0.8950000000       35.2210000000       92.7930000000
H                 3.0340000000       36.4010000000       92.5200000000
H                 0.7770000000       36.8350000000       94.1620000000
H                -0.0220000000       34.7540000000       93.1530000000
H                 0.6740000000       35.8660000000       91.9430000000
H                 1.6130000000       34.4540000000       92.5010000000
N                 2.9330000000       34.6690000000       95.2560000000
C                 3.2660000000       33.7490000000       96.3300000000
C                 3.5960000000       34.4570000000       97.6490000000
O                 3.6570000000       33.8320000000       98.7030000000
C                 4.4280000000       32.8710000000       95.8820000000
C                 4.1520000000       32.2000000000       94.5530000000
C                 5.4080000000       31.6010000000       93.9530000000
N                 5.1320000000       31.0000000000       92.6480000000
C                 5.1440000000       29.6930000000       92.3950000000
N                 5.4400000000       28.8320000000       93.3610000000
N                 4.8700000000       29.2470000000       91.1720000000
H                 3.7110000000       34.8710000000       94.6290000000
H                 2.4150000000       33.1000000000       96.5360000000
H                 5.3210000000       33.4870000000       95.7740000000
H                 4.5980000000       32.0940000000       96.6280000000
H                 3.4280000000       31.3990000000       94.6980000000
H                 3.7580000000       32.9370000000       93.8530000000
H                 6.1560000000       32.3830000000       93.8210000000
H                 5.7920000000       30.8250000000       94.6160000000
H                 4.9140000000       31.6290000000       91.8750000000
H                 5.6580000000       29.1720000000       94.2980000000
H                 5.4490000000       27.8310000000       93.1670000000
H                 4.6500000000       29.9070000000       90.4260000000
H                 4.8800000000       28.2450000000       90.9800000000
N                 3.7980000000       35.7650000000       97.5870000000
C                 4.0990000000       36.5700000000       98.7710000000
C                 2.9430000000       36.6130000000       99.7790000000
O                 1.7750000000       36.6890000000       99.3920000000
C                 4.4380000000       38.0040000000       98.3310000000
C                 5.7330000000       37.9880000000       97.5170000000
C                 4.4950000000       38.9660000000       99.5250000000
C                 6.1670000000       39.3410000000       97.0300000000
H                 3.7610000000       36.3100000000       96.7250000000
H                 4.9410000000       36.0920000000       99.2710000000
H                 3.6400000000       38.3800000000       97.6910000000
H                 6.5330000000       37.5880000000       98.1410000000
H                 5.5880000000       37.3520000000       96.6430000000
H                 4.7370000000       39.9660000000       99.1640000000
H                 3.5240000000       38.9750000000      100.0200000000
H                 5.2630000000       38.6250000000      100.2190000000
H                 7.0920000000       39.2340000000       96.4640000000
H                 5.3860000000       39.7560000000       96.3920000000
H                 6.3300000000       39.9920000000       97.8890000000
N                 3.2590000000       36.5580000000      101.0700000000
C                 2.2400000000       36.7490000000      102.0950000000
C                 2.7520000000       37.7460000000      103.1020000000
O                 2.6170000000       37.5550000000      104.3010000000
C                 1.9160000000       35.4270000000      102.7890000000
O                 3.0820000000       34.6340000000      102.9160000000
H                 4.1980000000       36.3850000000      101.4290000000
H                 1.3250000000       37.1260000000      101.6380000000
H                 1.5160000000       35.6340000000      103.7820000000
H                 1.1790000000       34.8850000000      102.1960000000
H                 2.8660000000       33.7890000000      103.3630000000
N                 3.3640000000       38.8130000000      102.6180000000
C                 4.0180000000       39.7310000000      103.5300000000
C                 3.4090000000       41.1220000000      103.4810000000
O                 3.9660000000       42.0920000000      104.0050000000
C                 5.5180000000       39.8030000000      103.2560000000
C                 6.3400000000       38.5210000000      103.2220000000
C                 7.7230000000       38.8140000000      103.7720000000
C                 5.6650000000       37.4000000000      103.9940000000
H                 3.4220000000       39.0600000000      101.6300000000
H                 3.8970000000       39.3470000000      104.5430000000
H                 5.6470000000       40.2740000000      102.2810000000
H                 5.9590000000       40.4280000000      104.0330000000
H                 6.4290000000       38.1690000000      102.1940000000
H                 8.3150000000       37.8990000000      103.7490000000
H                 8.1960000000       39.5780000000      103.1550000000
H                 7.6290000000       39.1700000000      104.7980000000
H                 6.2880000000       36.5070000000      103.9410000000
H                 5.5430000000       37.7080000000      105.0330000000
H                 4.6900000000       37.2000000000      103.5490000000
N                 2.2560000000       41.2350000000      102.8580000000
C                 1.5440000000       42.4820000000      102.9670000000
C                 2.2190000000       43.6300000000      102.2700000000
O                 3.4320000000       43.6530000000      102.0890000000
H                 1.8100000000       40.5110000000      102.2950000000
H                 0.5510000000       42.3620000000      102.5340000000
H                 1.4420000000       42.7410000000      104.0210000000
N                 1.4140000000       44.6210000000      101.9310000000
C                 1.5460000000       45.7240000000      100.9910000000
C                 2.9700000000       46.1700000000      100.8000000000
O                 3.5790000000       45.8670000000       99.7730000000
C                 0.7970000000       46.8370000000      101.6890000000
C                -0.2090000000       46.1490000000      102.4670000000
C                 0.4250000000       44.9140000000      102.9680000000
H                 1.0940000000       45.4460000000      100.0390000000
H                 1.4740000000       47.4000000000      102.3310000000
H                 0.3410000000       47.5010000000      100.9540000000
H                -0.5250000000       46.7820000000      103.2960000000
H                -1.0630000000       45.9120000000      101.8320000000
H                 0.9070000000       45.0850000000      103.9310000000
H                -0.3030000000       44.1070000000      103.0530000000
N                 3.4570000000       46.9220000000      101.7840000000
C                 4.7870000000       47.4950000000      101.7650000000
C                 5.7370000000       46.6050000000      100.9680000000
O                 6.3230000000       47.0410000000       99.9880000000
C                 5.2860000000       47.6680000000      103.2010000000
C                 5.7450000000       49.0830000000      103.5630000000
C                 6.4580000000       49.1230000000      104.9270000000
N                 5.5450000000       49.1910000000      106.0730000000
C                 5.0050000000       50.3190000000      106.5350000000
N                 5.2750000000       51.4780000000      105.9360000000
N                 4.1890000000       50.2940000000      107.5900000000
H                 2.9350000000       47.1550000000      102.6290000000
H                 4.7670000000       48.4740000000      101.2860000000
H                 4.4760000000       47.4040000000      103.8810000000
H                 6.1340000000       47.0010000000      103.3540000000
H                 6.4410000000       49.4400000000      102.8040000000
H                 4.8770000000       49.7410000000      103.6130000000
H                 7.0590000000       48.2200000000      105.0350000000
H                 7.0990000000       50.0040000000      104.9620000000
H                 5.3080000000       48.3190000000      106.5470000000
H                 5.8940000000       51.5010000000      105.1260000000
H                 4.8630000000       52.3420000000      106.2880000000
H                 3.9750000000       49.4080000000      108.0480000000
H                 3.7790000000       51.1610000000      107.9380000000
N                 5.8610000000       45.3490000000      101.3850000000
C                 6.7400000000       44.3930000000      100.7340000000
C                 6.2380000000       44.0300000000       99.3510000000
O                 6.9920000000       44.0450000000       98.3710000000
C                 6.8220000000       43.1260000000      101.5650000000
S                 7.7030000000       41.7620000000      100.7710000000
H                 5.3590000000       44.9590000000      102.1820000000
H                 7.7280000000       44.8460000000      100.6490000000
H                 7.3410000000       43.3550000000      102.4960000000
H                 5.8090000000       42.7840000000      101.7770000000
H                 8.1406868050       40.8632110152      101.4347835653
N                 4.9590000000       43.6840000000       99.2720000000
C                 4.3670000000       43.2790000000       98.0000000000
C                 4.7050000000       44.2670000000       96.8790000000
O                 5.4240000000       43.9340000000       95.9410000000
C                 2.8660000000       43.0880000000       98.1450000000
C                 2.6010000000       41.9280000000       99.0990000000
C                 2.2560000000       42.8000000000       96.8240000000
C                 1.1350000000       41.6850000000       99.3840000000
H                 4.3130000000       43.6730000000      100.0610000000
H                 4.8190000000       42.3310000000       97.7070000000
H                 2.4260000000       44.0020000000       98.5430000000
H                 3.0090000000       41.0170000000       98.6620000000
H                 3.0930000000       42.1380000000      100.0490000000
H                 1.1820000000       42.6670000000       96.9510000000
H                 2.4500000000       43.6370000000       96.1530000000
H                 2.6980000000       41.8890000000       96.4200000000
H                 1.0420000000       40.8440000000      100.0710000000
H                 0.7080000000       42.5810000000       99.8340000000
H                 0.6240000000       41.4590000000       98.4480000000
N                 4.2070000000       45.4880000000       97.0060000000
C                 4.5360000000       46.5740000000       96.0920000000
C                 6.0190000000       46.6510000000       95.7850000000
O                 6.4600000000       46.4380000000       94.6570000000
C                 4.1390000000       47.8880000000       96.7340000000
C                 2.8810000000       47.8010000000       97.5470000000
C                 2.4620000000       49.1720000000       97.9690000000
C                 1.0260000000       49.1920000000       98.3970000000
N                 0.6160000000       50.5880000000       98.6840000000
H                 3.5600000000       45.7640000000       97.7450000000
H                 4.0020000000       46.3990000000       95.1580000000
H                 4.9420000000       48.2130000000       97.3950000000
H                 3.9790000000       48.6280000000       95.9500000000
H                 2.0850000000       47.3580000000       96.9490000000
H                 3.0580000000       47.1980000000       98.4370000000
H                 3.0760000000       49.4960000000       98.8090000000
H                 2.5810000000       49.8610000000       97.1330000000
H                 0.3970000000       48.7970000000       97.5990000000
H                 0.9010000000       48.5950000000       99.3010000000
H                -0.3330000000       50.6000000000       99.1100000000
H                 1.2880000000       51.0270000000       99.3450000000
H                 0.5980000000       51.1410000000       97.8040000000
N                 8.4810000000       44.7340000000       96.2410000000
C                 8.9380000000       43.5840000000       95.4920000000
C                 8.5900000000       43.7430000000       94.0280000000
O                 9.4590000000       43.6980000000       93.1630000000
C                 8.2880000000       42.3160000000       96.0240000000
C                 8.7110000000       41.0830000000       95.2920000000
C                 9.7150000000       40.2710000000       95.7960000000
C                 8.1160000000       40.7430000000       94.0870000000
C                10.1130000000       39.1380000000       95.1170000000
C                 8.5070000000       39.6130000000       93.4020000000
C                 9.5120000000       38.8110000000       93.9150000000
H                 7.9690000000       44.4960000000       97.0900000000
H                10.0180000000       43.4980000000       95.6110000000
H                 8.5610000000       42.1930000000       97.0720000000
H                 7.2060000000       42.4080000000       95.9280000000
H                10.1910000000       40.5280000000       96.7310000000
H                 7.3370000000       41.3710000000       93.6800000000
H                10.8910000000       38.5090000000       95.5230000000
H                 8.0310000000       39.3540000000       92.4680000000
H                 9.8270000000       37.9290000000       93.3760000000
N                 7.3050000000       43.9230000000       93.7660000000
C                 6.7950000000       44.0670000000       92.4220000000
C                 7.5270000000       45.1340000000       91.6000000000
O                 8.1820000000       44.8120000000       90.6170000000
C                 5.3310000000       44.4210000000       92.4890000000
O                 4.6340000000       43.3850000000       93.1820000000
C                 4.7630000000       44.5740000000       91.1030000000
H                 6.5790000000       43.9740000000       94.4810000000
H                 6.9420000000       43.1110000000       91.9190000000
H                 5.1990000000       45.3670000000       93.0150000000
H                 4.7340000000       43.5030000000       94.1500000000
H                 3.7050000000       44.8290000000       91.1600000000
H                 5.2900000000       45.3650000000       90.5700000000
H                 4.8730000000       43.6410000000       90.5500000000
N                12.9000000000       34.2448223045      101.6840078328
C                12.4270000000       35.6148223045      101.8950078328
C                11.3640000000       35.7778223045      102.9910078328
O                11.5310000000       36.5858223045      103.9030078328
C                11.9100000000       36.2508223045      100.5940078328
C                11.4020000000       37.6788223045      100.8600078328
C                12.4560000000       38.4708223045      101.6260078328
C                10.9730000000       38.4548223045       99.6230078328
H                12.7000000000       33.9558223045      100.7050078328
H                13.9250000000       34.2018223045      101.8560078328
H                12.4110000000       33.6038223045      102.3410078328
H                13.3060000000       36.1598223045      102.2390078328
H                12.7190000000       36.2978223045       99.8650078328
H                11.0870000000       35.6548223045      100.1990078328
H                10.4940000000       37.5668223045      101.4530078328
H                12.0820000000       39.4788223045      101.8060078328
H                12.6540000000       37.9728223045      102.5750078328
H                13.3690000000       38.5138223045      101.0320078328
H                10.6330000000       39.4448223045       99.9260078328
H                11.8240000000       38.5438223045       98.9470078328
H                10.1620000000       37.9178223045       99.1310078328
N                10.2660000000       35.0318223045      102.8920078328
C                 9.1480000000       35.1918223045      103.8270078328
C                 9.6360000000       34.9708223045      105.2310078328
O                 8.8470000000       34.8368223045      106.1600078328
C                 8.0170000000       34.1838223045      103.5540078328
C                 7.0430000000       34.5708223045      102.4260078328
C                 7.5740000000       34.2528223045      101.0210078328
O                 8.4230000000       33.3688223045      100.8560078328
N                 7.0760000000       34.9768223045      100.0070078328
H                10.1180000000       34.3138223045      102.1830078328
H                 8.7450000000       36.1968223045      103.7030078328
H                 8.4670000000       33.2288223045      103.2810078328
H                 7.4300000000       34.0718223045      104.4660078328
H                 6.1110000000       34.0218223045      102.5620078328
H                 6.8550000000       35.6428223045      102.4760078328
H                 6.3780000000       35.6978223045      100.1900078328
H                 7.3950000000       34.8058223045       99.0530078328
N                12.7330000000       38.3968223045      106.1240078328
C                12.0730000000       39.6188223045      106.5810078328
C                11.6530000000       39.5118223045      108.0290078328
O                11.5980000000       40.4958223045      108.7640078328
C                10.8050000000       39.9108223045      105.7920078328
C                11.1080000000       39.9398223045      104.3030078328
C                10.2320000000       41.2398223045      106.2300078328
C                12.1870000000       40.9068223045      103.9480078328
H                12.1460000000       37.7788223045      105.5640078328
H                12.8060000000       40.4128223045      106.4350078328
H                10.0780000000       39.1218223045      105.9840078328
H                11.4290000000       38.9468223045      103.9880078328
H                10.2060000000       40.2288223045      103.7640078328
H                 9.3250000000       41.4408223045      105.6600078328
H                10.0000000000       41.1928223045      107.2940078328
H                10.9680000000       42.0218223045      106.0450078328
H                12.3510000000       40.8758223045      102.8710078328
H                11.8790000000       41.9088223045      104.2480078328
H                13.1010000000       40.6268223045      104.4720078328
H                -1.2499232930       31.8083506346      100.9415382663
H                -3.6587646915       33.8178822445       97.4259922826
H                -4.4251702004       35.3452144650       99.8586384534
H                -3.3456886569       44.5016921453       91.0656010384
H                -1.9826658728       46.7413434251       91.9199398473
H                 0.6116509196       45.4634881851       89.9518047509
H                 7.9853299094       37.3537967838       86.8371034204
H                 3.7902881833       36.2195785106       88.9229528037
H                 5.3592915643       34.2586463655       90.6774002154
H                 6.6684437402       46.8802862401       96.5100176884
H                 9.1885947421       45.2325990492       96.4873912925
H                 7.4703369633       46.0962650460       91.8661489837
H                10.6174060018       34.9311824198      105.4188134217
H                13.4435959717       38.6114761028      105.6151098944
H                11.4098853844       38.6217751107      108.4146388437
