 376 
 
N               -31.4737798571       67.3573049136       17.7736449179
C               -32.7610553721       67.3471785527       17.1086718744
C               -33.0226218721       66.1096323082       16.2815418918
O               -34.0755689647       66.0021027355       15.6977088548
C               -32.9358411405       68.5412415171       16.2083394572
C               -33.2692150646       69.7705051351       17.0341924492
C               -32.3101825626       69.9741491658       18.2224304638
C               -33.2778860482       70.9894307047       16.1123624992
H               -30.7676760066       68.0148730631       17.4792810610
H               -33.5601617889       67.3307180858       17.8653718317
H               -32.0119499617       68.6946408976       15.6445764891
H               -33.7370876988       68.3440738409       15.4976924697
H               -34.2747921597       69.6630190437       17.4519133969
H               -32.5535092942       70.9232085973       18.6974535619
H               -32.4222762693       69.2008936000       18.9740082968
H               -31.2716067286       70.0263277791       17.9035204175
H               -33.7842955755       71.8204112068       16.5957513486
H               -32.2598627781       71.2987516983       15.8870188665
H               -33.7936030059       70.7708769589       15.1824131519
N               -32.0626726643       65.1748840855       16.2174823838
C               -32.4151416300       63.8152053268       15.9208128905
C               -32.6726312246       63.0285291898       17.2142393107
O               -33.7737456245       62.5126988029       17.3655941977
C               -31.3648709886       63.1334082629       15.0530780140
C               -31.8107393297       61.7138081203       14.6774508744
C               -33.0788311557       61.7004862740       13.8198283566
O               -34.1520511994       61.2753728327       14.2150528723
N               -32.9250757837       62.2099941255       12.5809641574
H               -31.2006339137       65.2937846431       16.7263170798
H               -33.3769552426       63.8443616778       15.3967069894
H               -31.2306504135       63.7396452588       14.1568522028
H               -30.4183315809       63.0909133831       15.5940941923
H               -31.0167398454       61.2186766682       14.1166022171
H               -32.0106679641       61.1236931131       15.5731345913
H               -32.0171398225       62.4555428294       12.2241923722
H               -33.6807577620       62.1016231967       11.9236765327
N               -31.7001694579       62.9334873501       18.1411304510
C               -31.8785513527       62.0801465384       19.3250909041
C               -33.1792096432       62.4340287791       20.1420397947
O               -33.6127163051       61.6775744637       21.0031163460
C               -30.5351889041       61.8716137688       20.0863560422
C               -30.3151310292       62.6197093630       21.4106988046
C               -29.2272884231       61.9829639921       22.2828271039
O               -29.0300686150       60.7823133851       22.3712140533
N               -28.4292983559       62.8658929882       22.9234449542
H               -30.7999918991       63.3764496476       17.9894993195
H               -32.1671335366       61.0891223108       18.9379743931
H               -30.4569634096       60.8108682798       20.3309888621
H               -29.7265470961       62.1116345505       19.3951015656
H               -30.0771409550       63.6687304392       21.2486939471
H               -31.2399176992       62.5611451462       21.9916143134
H               -28.7535363105       63.7951792327       23.1656325892
H               -27.7784957232       62.4724794584       23.5879909938
N               -33.8342237725       63.5281447461       19.7130835721
C               -35.0705743395       63.9884093730       20.2805022327
C               -36.2665558658       63.7858471772       19.3790433654
O               -37.3274191886       63.4563832038       19.8958405114
C               -34.8845836576       65.4306108244       20.7278542408
C               -33.9630433598       65.4368320308       21.9402412405
C               -34.4600783612       65.8614342880       23.1703927433
C               -32.6365171027       64.9860796897       21.9421849023
C               -33.7100048867       65.8390355128       24.3361433808
C               -31.8519885535       65.0085955176       23.0917354987
C               -32.3743007441       65.4647847727       24.2997252643
O               -31.6498221186       65.5841563553       25.4410920116
H               -33.2856715402       64.2438078656       19.2492519287
H               -35.2797160787       63.3601573414       21.1600161140
H               -34.4492988742       66.0015354504       19.9073244585
H               -35.8382027151       65.8756159125       21.0048658727
H               -35.4893705651       66.1832128249       23.2310944944
H               -32.1712392787       64.6668826699       21.0283416963
H               -34.1599513552       66.0294798832       25.2938419036
H               -30.8160016736       64.7094546699       23.0691381875
H               -30.6997055427       65.4789622317       25.2187360094
N               -36.1919691855       63.9459424417       18.0582640885
C               -37.2787086226       63.4102374374       17.2391055720
C               -37.3803644510       61.8876937592       17.4692339824
O               -38.4711731766       61.4064731481       17.8062297573
C               -37.0899486187       63.8293260818       15.7725770081
C               -38.3812706772       64.0333384669       14.9578977035
C               -38.0428186466       64.2683306460       13.4537780420
N               -39.2048262589       64.6933568708       12.6290411422
C               -39.3814891126       64.7307609867       11.2962510043
N               -38.4919750519       64.2087345263       10.4547108728
N               -40.4709629037       65.3244962540       10.7839597351
H               -35.3135973633       64.1124905855       17.5890052606
H               -38.2201039478       63.7992381459       17.6335415190
H               -36.5329419708       64.7695177134       15.7723782703
H               -36.4702095827       63.0756004060       15.2802644804
H               -39.0248794804       63.1587359024       15.0635867754
H               -38.9232168123       64.8969884439       15.3440174518
H               -37.2822427559       65.0543362821       13.4113898758
H               -37.6267813994       63.3428379830       13.0557580618
H               -39.9184911568       65.1606918470       13.1743039191
H               -37.6266263316       63.8270246159       10.7967511230
H               -38.6235181175       64.2744817144        9.4579806912
H               -41.2032833112       65.6676389028       11.3847649930
H               -40.6626108711       65.2787182013        9.7970048779
N               -36.2692583455       61.1606632701       17.3375399654
C               -36.1825210283       59.7099160747       17.5090188200
C               -36.1677470124       59.3415648694       19.0096512178
O               -35.4631069477       58.4692078584       19.4812274281
C               -34.9952596903       59.0337426117       16.7912764097
C               -35.2825359842       58.2862222684       15.4741154385
C               -34.8188426487       56.7746291402       15.3660895005
O               -34.7419361583       56.3304247735       14.1994108787
O               -34.6030793903       56.1345090059       16.4141016065
H               -35.3796994623       61.6256321270       17.1693088210
H               -37.1206473688       59.2846190629       17.1188880837
H               -34.2301114471       59.7870700233       16.5993915632
H               -34.5766976951       58.2984743174       17.4872812983
H               -36.3549318327       58.2453774516       15.2648984787
H               -34.8110714535       58.8022543936       14.6381187566
N               -37.0671309386       60.0595211017       19.7159056925
C               -37.5668472553       59.5902137244       20.9956166922
C               -38.8614382478       60.3001521522       21.3925652105
O               -39.6530447871       59.6833839145       22.0892461494
C               -36.5151914782       59.5218470300       22.1143558459
C               -37.0893999935       59.2367523746       23.5095144924
S               -38.2279389755       57.7814686570       23.7978759221
C               -37.6485158463       57.2904650444       25.4742214478
H               -37.7757312996       60.5425731846       19.1627800673
H               -37.8899917622       58.5445893434       20.8580310116
H               -35.7863139090       58.7581179021       21.8401218759
H               -35.9839120044       60.4751209320       22.1806404539
H               -36.2536206465       59.0730724538       24.1873408097
H               -37.6527018982       60.1091736846       23.8301430482
H               -38.3917350120       56.5778790163       25.8141898974
H               -36.6723059653       56.8231220585       25.3963816763
H               -37.6102898370       58.1627925931       26.1169237565
N               -39.2207365852       61.4654732514       20.8442595254
C               -40.6400946744       61.7244749587       20.9250554346
C               -41.3554002395       60.4712347598       20.4533824301
O               -42.1623686198       59.7931482360       21.0682849325
C               -41.0922174571       62.8000848210       19.9653322594
C               -40.8579079123       64.1936348206       20.5053664954
C               -41.7199562053       65.1275787026       19.6729340412
C               -41.2215278180       64.3227155934       21.9742232373
H               -38.5789872356       62.1311142417       20.4285878402
H               -40.9392936499       61.9078903543       21.9595444163
H               -40.5563087405       62.6885366651       19.0227781339
H               -42.1628702109       62.6680986534       19.7825897009
H               -39.7980952657       64.4465533745       20.3936925453
H               -41.4783140017       66.1628689194       19.8976407825
H               -41.5826419249       64.9556965872       18.6103293366
H               -42.7591250000       64.9532731835       19.9318254141
H               -41.1987565563       65.3695071993       22.2720885860
H               -42.2256334711       63.9478988898       22.1545522177
H               -40.5184046047       63.7901357863       22.6061864788
N               -41.0560576031       60.2090444892       19.1833492331
C               -41.8117394772       59.2502508403       18.4358076782
C               -41.4634334547       57.8028360508       18.7881915683
O               -42.3035854750       56.9260476570       18.6286420828
C               -41.6462686933       59.6741020193       16.9675660116
C               -42.4155201272       60.9937504857       16.7855339239
C               -42.0630803358       58.5893174514       15.9845845349
C               -42.1413013672       61.6386362733       15.4343929456
H               -40.3046714493       60.6937538062       18.7117502997
H               -42.8708536897       59.3377772524       18.7187335505
H               -40.5750348377       59.8598687019       16.8143622171
H               -43.4842201786       60.7996681161       16.8897065797
H               -42.1330432094       61.6867326118       17.5740769579
H               -41.8875921772       58.9183484809       14.9654577197
H               -41.4889281224       57.6793133267       16.1476946295
H               -43.1157595131       58.3416524330       16.1003516509
H               -42.6348276861       62.6049922144       15.3853812937
H               -41.0722955539       61.7753099992       15.2899914524
H               -42.5225215383       61.0233989873       14.6242351490
N               -40.2563273590       57.5321131411       19.3274649277
C               -39.8966787180       56.1780559824       19.7499965705
C               -40.7131311133       55.7192308959       20.9906966228
O               -40.9567466107       54.5311545675       21.1716748618
C               -38.3939805718       55.9931131134       19.9519242224
H               -39.5806383346       58.2683888320       19.4572200261
H               -40.2317084378       55.4986608952       18.9532154447
H               -38.1821534477       54.9325163155       20.0433631966
H               -37.8412497621       56.3847117500       19.1005525819
H               -38.0552795121       56.4842766525       20.8614233130
N               -41.1908723884       56.7116427349       21.7612378619
C               -42.2061700787       56.4818008703       22.7672244710
C               -43.5370750694       57.1497818257       22.4191795844
O               -44.3490022387       57.4090048970       23.2901883744
C               -41.7607562662       56.7856916138       24.1848035814
C               -41.2231459533       55.5203294604       24.9032052660
O               -41.6598605212       54.3931147307       24.6283684736
O               -40.3880261016       55.7837364882       25.8113151297
H               -40.8509470957       57.6582436957       21.6502953673
H               -42.4130067168       55.3956300338       22.7308623290
H               -40.9917380395       57.5559595072       24.1835055646
H               -42.6318203225       57.1251431069       24.7471283044
N               -43.7724161436       57.3244229940       21.1069698502
C               -45.0997725839       57.5278368677       20.5645258182
C               -45.6626227562       58.9165116228       20.8768433400
O               -46.8732178133       59.1179207242       20.9284675393
H               -43.0814424003       56.9877572420       20.4522390893
H               -45.0620710916       57.3723701858       19.4861685100
H               -45.8000197637       56.8048434505       20.9982988549
N               -44.7624033568       59.8633911663       21.1134802394
C               -45.1417215948       61.0945226245       21.7507085066
C               -45.2415567902       62.2396918467       20.7560148882
O               -44.5574926198       62.3514400365       19.7486012995
C               -44.1245445083       61.4363122083       22.8538304513
C               -44.0292937741       60.3299982717       23.9135055668
C               -44.4920040908       62.7267697862       23.5582003887
C               -42.6062815672       60.0187239580       24.3398398837
H               -43.7725327527       59.6420691845       21.0978108794
H               -46.1349614100       60.9254293955       22.1847498586
H               -43.1568831648       61.5476164613       22.3606481552
H               -44.5780155262       60.6676734361       24.7960658086
H               -44.5028309266       59.4184670659       23.5617859176
H               -43.7654775440       62.8993846134       24.3483098991
H               -44.4643106571       63.5884671407       22.9052314665
H               -45.4750008380       62.6356033489       24.0116000872
H               -42.6130832898       59.2750667836       25.1282174888
H               -42.0200757420       59.6435767117       23.5067324558
H               -42.1147667110       60.9148885174       24.7151141765
N               -46.1753590880       63.1252623540       21.1460165376
C               -46.3173587661       64.4261542420       20.5580190142
C               -45.3577552203       65.4511937262       21.1683105998
O               -44.9812468873       65.4313819336       22.3279515827
C               -47.7480726537       64.9297756106       20.7754964792
C               -47.9593779197       66.3823384085       20.2451320169
O               -48.0729716811       66.5510351094       19.0170630800
O               -48.0104862869       67.2701102854       21.1220789753
H               -46.6029318210       63.0133946885       22.0521135949
H               -46.1205358423       64.3350491943       19.4879528025
H               -48.4487063070       64.2815996513       20.2493276117
H               -47.9826362102       64.9594609892       21.8396472780
N               -44.9969951021       66.4448072750       20.3499483627
C               -44.4478277076       67.6567982745       20.9118781434
C               -45.4835921750       68.7248592821       21.3285684545
O               -45.4191442416       69.1281221298       22.4787716701
C               -43.5218502113       68.2121485272       19.8285270891
C               -43.9126156242       67.4959112794       18.5226328804
C               -44.8454187302       66.3396016332       18.9083693775
H               -43.9190309320       67.4058705679       21.8361566136
H               -43.6359477703       69.2894880868       19.7163694123
H               -42.4880022137       68.0108541164       20.0946328834
H               -44.4210695728       68.1855662981       17.8494652526
H               -43.0266141576       67.1353554828       18.0074460021
H               -45.8106824223       66.4107664238       18.3947514557
H               -44.3999672181       65.3718725080       18.6689736390
N               -46.6979342065       68.9819627133       24.6574188586
C               -45.8573611552       68.3414843066       25.6507337452
C               -44.8594559301       69.3477033619       26.2035841140
O               -44.7037285533       69.5364618148       27.4122334939
C               -45.3049774782       67.0537797633       25.0256904455
C               -46.1645458515       65.8366002626       25.4469033278
C               -46.9156992372       65.1356199392       24.3204729719
C               -45.2984387444       64.8349474095       26.2018693091
H               -47.1543502104       68.3382003187       24.0290606307
H               -46.4930902937       68.0732751985       26.5128618874
H               -45.2921045170       67.1623134541       23.9442522517
H               -44.2771311410       66.9052184365       25.3578310607
H               -46.9435692444       66.1964210852       26.1320198330
H               -47.5727838022       64.3915747495       24.7639592906
H               -47.5466486917       65.8446672879       23.7889259604
H               -46.2276760292       64.6742797333       23.6369443238
H               -45.8918812480       63.9894570268       26.5365105519
H               -44.5047365145       64.4830848506       25.5534276914
H               -44.8543441101       65.3109263425       27.0732348159
N               -44.1830372669       69.9920704027       25.2770563152
C               -43.3847310731       71.1823159001       25.5076499552
C               -43.6062686570       71.8077957582       26.9150999737
O               -42.7176919919       71.8691305139       27.7550147635
C               -43.6699686096       72.1946934954       24.3722653193
C               -43.9281006302       71.5671038121       22.9798586440
C               -43.9725850041       72.6533694890       21.9002331620
C               -42.9114831555       70.5123846439       22.5413973573
H               -44.4593542731       69.8179478398       24.3202752043
H               -42.3264234143       70.8881066971       25.4748256180
H               -44.5532437602       72.7899275727       24.6103608934
H               -42.8235782652       72.8805107641       24.3088816225
H               -44.9253619943       71.1237128210       22.9954017897
H               -44.1998832348       72.1971454299       20.9392619503
H               -44.7559092985       73.3736759944       22.1162179678
H               -43.0177948856       73.1681709192       21.8204714581
H               -43.0891666199       70.2732280188       21.4989880710
H               -41.8996111526       70.9065505386       22.6206046234
H               -42.9658029842       69.5877344899       23.1052794694
N               -46.4995327202       58.4442599503       31.4782901044
C               -46.3656330685       59.6367847870       30.6958101506
C               -45.6708854804       60.7512687173       31.4970868792
O               -44.6168394394       61.2682749817       31.1487136760
C               -47.7560882981       60.0708656306       30.2777995914
C               -47.7523804746       61.5228758836       29.8094879845
C               -48.7516502511       61.7691845922       28.6879168513
N               -48.3333461285       61.0572436932       27.4780443102
C               -48.5592700674       61.4199951060       26.2103015744
N               -49.2610278456       62.5185424281       25.9113218649
N               -48.0448840745       60.6680049367       25.2211318263
H               -47.4357698473       58.1892953750       31.7566987671
H               -45.7286000386       59.4143729130       29.8279456705
H               -48.1230128963       59.3794854768       29.5176185413
H               -48.4215272077       59.9667864213       31.1362693880
H               -47.9928157291       62.1890517440       30.6316491204
H               -46.7604123101       61.7886769416       29.4378712367
H               -49.7496145601       61.4350074727       28.9833754391
H               -48.7836869922       62.8396660459       28.4751397985
H               -47.8017230951       60.2128217074       27.6380916284
H               -49.5319084194       63.1762337007       26.6249123611
H               -49.3595683579       62.8347864111       24.9611517664
H               -47.5950571865       59.7881437232       25.4169174702
H               -48.3146423304       60.8396430963       24.2665238917
N               -42.0334893252       60.4965228974       31.9445424763
C               -41.2642358664       60.9517343645       30.8029300578
C               -40.9878869479       62.4443469573       30.9757454358
O               -39.8324409917       62.8563942957       30.9730481057
C               -41.9595076726       60.6237417042       29.4833071541
C               -41.3951557708       59.3693661310       28.8033633113
C               -41.6188325582       58.1265246261       29.6544175240
C               -40.7629633780       56.9296078943       29.2532444359
N               -41.3032833382       56.1035047094       28.1403223920
H               -42.8925241893       59.9908314971       31.7701245800
H               -40.2732386043       60.4739364798       30.8240248228
H               -43.0261843069       60.5019470799       29.6726805368
H               -41.8366099756       61.4646804621       28.7998301943
H               -41.8640431580       59.2612720673       27.8249297265
H               -40.3243541451       59.5110743313       28.6586780801
H               -41.3459058187       58.3740899496       30.6778842525
H               -42.6754122722       57.8491637106       29.6536690556
H               -39.7625087907       57.2713315265       28.9905305746
H               -40.6849739572       56.2729292954       30.1206392661
H               -40.9748137499       55.1352413961       28.2307401684
H               -42.3284000614       56.0685658772       28.1474854277
H               -40.9536320216       56.3337568732       27.1517440162
N               -37.2101562765       64.0355598794       30.5230315962
C               -36.8636911677       64.8550818169       29.4003642800
C               -36.4329585093       66.2089395093       29.9590628046
O               -35.3383543797       66.6555628406       29.6300174924
C               -38.0204816212       64.9308717856       28.4202865130
C               -38.2285655696       63.7193666282       27.5092845840
C               -38.7664835828       63.9982258980       26.2458042612
C               -38.0287553575       62.3627788946       27.7899905125
C               -39.1391886300       63.0242129738       25.3318781028
C               -38.4221086309       61.3645885780       26.8850005979
C               -39.0216767459       61.6725485589       25.6532770199
O               -39.5320436178       60.7892219771       24.7461061080
H               -38.1884921330       63.9628964010       30.7907436302
H               -35.9723044678       64.4331890224       28.9169620808
H               -38.9344815987       65.1119774277       28.9933582975
H               -37.8650438705       65.7930495706       27.7696291224
H               -38.9179838645       65.0303034498       25.9648652927
H               -37.5988743008       62.0521168877       28.7292214230
H               -39.5687966976       63.2967632594       24.3827887709
H               -38.2871640622       60.3278096064       27.1598412774
H               -39.4276836578       59.8715361462       25.0329843886
N               -38.0642384874       71.7617924196       17.1715834501
C               -38.5947324848       70.4773572662       16.8074454521
C               -40.1293892125       70.5339121305       16.6134858227
O               -40.7715989484       69.4969255732       16.5516616900
C               -38.1352596449       69.3501895052       17.7370045056
C               -37.2417874767       68.3389220591       17.0295353112
S               -36.9970873829       66.8274154846       18.0078478275
C               -38.7132428173       66.2752377405       18.0784391518
H               -38.2226727962       72.1024932220       18.1119162751
H               -38.2170094992       70.2879040146       15.7903848271
H               -37.6100445476       69.7849524849       18.5871401953
H               -39.0388805982       68.8596381829       18.0998111979
H               -37.6739044330       68.0449004603       16.0718059219
H               -36.2475846927       68.7468329505       16.8554593869
H               -38.7317416623       65.3595622301       18.6541842170
H               -39.3150129072       67.0162495619       18.5956003522
H               -39.0958127373       66.1320471812       17.0742794207
H               -31.5890379482       67.5334237551       18.6486864747
H               -46.1601286068       69.0498822557       20.6677670296
H               -47.3443238296       69.4533436773       25.0697057028
H               -44.5013427523       72.1791450789       27.1619644021
H               -46.1828013512       57.7422399578       31.0126194374
H               -46.0799503596       61.0862060454       32.3458995268
H               -41.5319981523       59.9383085526       32.4414361759
H               -41.7482416888       63.0835836017       31.0907983823
H               -36.9530038206       63.1873879586       30.3665803029
H               -37.0380648860       66.7099178901       30.5778252266
H               -37.1690713066       71.7544111110       17.0787328460
H               -40.5917593331       71.4174857526       16.5392461711
