 364 
 
N                 1.8091911846       37.4248313776       21.5056647832
C                 0.7090495428       37.8272859659       20.6395127271
C                 1.2031298103       37.8686363344       19.1385690646
O                 2.2451164271       38.4413218249       18.8414583592
C                 0.2283439848       39.2024831475       21.0790573660
C                -0.7473982800       39.8014669132       20.0340499226
S                -1.0441316368       41.5542060065       20.3724365358
C                 0.5218614467       42.2529697402       19.9493715040
H                 2.7669824015       37.6795592504       21.2905570329
H                -0.0904261355       37.0992004471       20.7138831982
H                -0.2218118815       39.1276868192       22.0546827932
H                 1.0997441579       39.8588594302       21.1706449271
H                -0.3935207136       39.7482034854       19.0180321215
H                -1.7149230939       39.3124555459       20.1100392854
H                 0.3803038177       43.3314333269       19.9017401283
H                 1.3035094877       42.0164984848       20.6746441401
H                 0.7862424012       41.9051923380       18.9498487737
N                 0.5020321896       37.2489730493       18.3132811955
C                 0.7881778306       37.1062561968       16.8657704758
C                -0.0276312094       38.1476586921       16.0648763330
O                -1.1932380085       38.2819696068       16.2060560438
C                 0.3530487253       35.6997296296       16.4918656292
C                 0.4948024961       35.3775726950       14.9922734231
C                 0.0344157208       33.9352586131       14.7704016734
N                 0.4118096721       33.4348869929       13.4752054036
C                 1.7751336008       33.0983931423       13.1088325601
N                 2.6936929120       33.3274504146       14.0397975495
N                 1.9849869003       32.5764925046       12.0434515373
H                -0.4604332187       36.9093291066       18.5787808026
H                 1.8545139200       37.2905664085       16.7449975977
H                 0.9269073364       35.0071498000       17.0927843760
H                -0.7032679176       35.5860555099       16.7681405593
H                -0.1018128127       36.0783182882       14.4126402533
H                 1.5331418132       35.5229999888       14.6955347789
H                 0.4267867857       33.2816894459       15.5602972586
H                -1.0456440504       33.8807300800       14.8118400245
H                -0.2522998444       33.2540296889       12.7698297647
H                 2.5568077232       33.5481492916       14.9924437979
H                 3.6521445542       33.0659513713       13.7515924058
H                 1.2622896224       32.5977162389       11.2489025301
H                 2.9608072582       32.6491325594       11.6301319490
N                 0.7194343740       38.9363312453       15.2519082733
C                 0.1378852378       39.8904067901       14.3777802159
C                 0.5465567784       39.5299517370       12.9298042177
O                 1.4129944750       38.7280650896       12.7073122681
C                 0.6218057747       41.3257942562       14.6907653778
C                 2.1389351829       41.4305055433       14.5875921076
C                 0.1299565376       41.6873409260       16.1351939931
C                 2.6994667461       42.8144748871       14.9619708454
H                 1.7243248238       38.7411573680       15.1976427690
H                -0.9433189975       39.8367727337       14.4726232495
H                 0.1523842224       42.0139567102       14.0054718019
H                 2.6089051449       40.6979700982       15.2529284912
H                 2.4257749395       41.2078064171       13.5622266768
H                 0.1594685716       42.7473228679       16.3244842543
H                -0.9003246645       41.3739221995       16.2792059956
H                 0.7447479655       41.1781114508       16.8733297816
H                 3.7670936193       42.8451555116       14.8124912304
H                 2.2409181322       43.5922760054       14.3529721483
H                 2.4751886284       43.0594375459       16.0037806046
N                -0.1343966300       40.2065675235       11.9967644788
C                 0.1846581822       40.1408702659       10.5590100936
C                 0.3294447651       41.5915815222       10.0796312837
O                -0.3296596531       42.4873283053       10.5811905274
C                -0.8744286961       39.4419926591        9.7415493523
H                -0.9184867297       40.7761886210       12.2661618511
H                 1.1444964878       39.6233742138       10.4767027429
H                -0.6365546856       39.4662742385        8.6857758509
H                -0.9824384761       38.4175893515       10.0570468963
H                -1.8602239722       39.9153765203        9.8915967496
N                 1.2822990213       41.7466448981        9.1833266783
C                 1.5856453896       43.0892264215        8.6469121009
C                 1.5675891336       43.0024039134        7.1013310971
O                 1.9754402207       41.9701847586        6.5672102614
C                 3.0221629562       43.5148390826        9.0594630289
C                 3.1597417774       43.9916659801       10.4575039652
C                 4.6596024271       44.1021971126       10.7896925629
C                 2.5009033798       45.3612675899       10.6902379044
H                 1.8150497275       40.9908294741        8.8496572473
H                 0.8305272260       43.7850463558        8.9968956517
H                 3.6983020565       42.6813142010        8.8552034745
H                 3.3428928455       44.3129810625        8.3544415578
H                 2.7075526966       43.2658240712       11.1550219228
H                 4.8015244697       44.4035449472       11.8141035504
H                 5.1592536831       43.1502759382       10.6137759961
H                 5.1140851303       44.8544858144       10.1555603273
H                 2.6518690919       45.7146190341       11.6926722682
H                 2.9589813542       46.1005820886       10.0267961177
H                 1.4362007391       45.3362130665       10.4762663513
N                 5.6265624758       50.3184629679       11.5864397633
C                 4.3039393178       49.7777758365       11.3506640123
C                 3.8197293957       49.0476967440       12.5886332430
O                 2.6155404592       49.0353337439       12.9007576487
C                 4.3257847929       48.8589663278       10.0761161819
C                 4.7366763260       49.6533027241        8.8647279594
C                 4.6106567641       48.8961065941        7.5162334406
C                 3.1988329862       48.9593345079        6.9351874624
N                 3.1765269836       48.5790302988        5.5216952514
H                 6.4101515148       50.0399032116       11.0233761930
H                 3.5794151074       50.5811861414       11.1701282508
H                 5.0336364593       48.0491944952       10.2776702312
H                 3.3280049361       48.4297152330        9.9754898754
H                 4.1407026353       50.5648520127        8.8033634968
H                 5.7735852249       49.9886684700        8.9671021319
H                 5.2817881832       49.3720079844        6.8070761691
H                 4.9572213135       47.8673429748        7.6362070260
H                 2.5529560308       48.2602369709        7.4704918479
H                 2.8009858099       49.9658656000        7.0731027934
H                 2.3111542833       48.8908757291        5.0560866358
H                 3.9641599091       48.9679517944        4.9562417310
H                 3.1815159446       47.5311603194        5.3888001296
N                 4.7440841941       48.3874966009       13.2848644512
C                 4.3883432914       47.6875703318       14.5659840023
C                 4.0345347468       48.7178969705       15.5906381981
O                 3.1267139999       48.5156453874       16.4188618536
C                 5.5235245049       46.8044054972       14.9947893043
C                 5.6742690839       45.6315315463       14.0437309523
C                 5.3181705880       46.2990379107       16.4314825721
C                 6.9160238553       44.7668479622       14.2545104729
H                 5.6867067316       48.3142417172       12.9357400852
H                 3.4788328908       47.1046340693       14.3763107431
H                 6.4617629446       47.3838769703       14.9631405960
H                 4.7736777786       45.0117780581       14.0949327301
H                 5.7313938508       46.0432567755       13.0151287919
H                 6.1725131012       45.7057629949       16.7484483610
H                 5.2093459043       47.1359483547       17.1216732314
H                 4.4228199479       45.6976181039       16.4958487769
H                 7.0651715672       44.1035424002       13.4049486781
H                 7.7914147244       45.3861163696       14.3943258906
H                 6.8002253008       44.1550417611       15.1520776159
N                 4.7550883737       49.8474576196       15.5999865906
C                 4.4718421148       50.8990843142       16.5737841312
C                 3.0509715598       51.3902716080       16.3988498444
O                 2.2879304732       51.5856818691       17.3626320874
C                 5.4339489851       52.0784163838       16.3772657123
C                 5.1252274280       53.1931130698       17.4034418041
C                 5.8996924311       54.4581144822       17.0669832565
O                 6.2805620369       54.7123531352       15.9282473257
N                 6.1444048364       55.2777972284       18.1016285081
H                 5.6063309522       49.9264162993       15.0468168244
H                 4.5714231945       50.5101272830       17.6052058335
H                 6.4502168476       51.7058406462       16.5436084932
H                 5.3422649289       52.4629945496       15.3771452363
H                 4.0705661423       53.4415729845       17.3629242990
H                 5.3716072257       52.8528125691       18.4059010093
H                 5.6696213508       55.1304865165       18.9765434785
H                 6.5331778033       56.1897482243       17.9081775414
N                 2.7201231978       51.6050045831       15.1178586923
C                 1.4369366809       52.1294218924       14.7479244806
C                 0.3177746142       51.1724101297       15.2043897853
O                -0.6421908191       51.5420411036       15.8510366231
C                 1.3789012157       52.3077959395       13.2118314006
C                 0.0144962009       52.9455914450       12.8372422257
O                 0.0039538191       54.1802233051       12.6773334983
O                -0.9437179135       52.1659465955       12.7343227958
H                 3.4293458244       51.5364196654       14.3961093511
H                 1.2316820172       53.0953303130       15.2266292738
H                 2.2035327272       52.9607707523       12.9095343164
H                 1.4957041649       51.3374670862       12.7400017538
N                 0.5148967089       49.8724997713       14.8744172067
C                -0.5422145361       48.9180677979       15.1439833119
C                -0.6716547571       48.6096030456       16.6159351689
O                -1.8043844911       48.4079612636       17.1063159266
C                -0.3024987492       47.6387963861       14.3432573521
C                -1.4978393819       46.6978389617       14.4423841548
C                -1.2174975882       45.2694002393       13.9737030494
C                -0.9866745147       45.1308862704       12.4648544055
N                -2.0040753456       44.2274585670       11.8432911240
H                 1.2659839537       49.6131345062       14.2503240274
H                -1.5034710104       49.3764255412       14.8441315124
H                -0.0756819564       47.9296348054       13.3172051688
H                 0.5907467212       47.1553795690       14.7597726611
H                -1.8255659123       46.6389731344       15.4810444414
H                -2.3395574787       47.1472699153       13.8955839200
H                -0.3697310503       44.9037457797       14.5470990367
H                -2.0606996095       44.6607369899       14.3037291453
H                -1.0558880490       46.1050168670       11.9735210173
H                -0.0076616166       44.6871823527       12.2523803372
H                -1.6559160893       43.8807991786       10.9147413304
H                -2.1465181550       43.3839323573       12.4153104357
H                -2.9122674337       44.6981387087       11.7622944685
N                 0.4586098046       48.5469751039       17.3486411389
C                 0.4607072865       47.9504285312       18.6679298667
C                 0.9364841518       48.8656287730       19.7908072953
O                 0.7710985099       48.5570397308       21.0175327729
C                 1.3678102209       46.6934135924       18.6826593844
C                 0.8107984875       45.6176790434       17.8155242458
C                -0.6244209249       45.1597936058       18.2416557367
O                -0.9433879436       45.2615978265       19.4067838424
O                -1.3285452898       44.6587260222       17.2983353775
H                 1.3449360804       48.6128660082       16.8717328391
H                -0.5505886988       47.6337283980       18.9245692403
H                 2.3755462022       47.0039591735       18.3740516728
H                 1.4123037390       46.3481062277       19.7254191847
H                 0.7652293988       45.9305228754       16.7600735013
H                 1.4523272009       44.7195210671       17.8678841898
N                 1.6568462599       49.9409612111       19.4449659939
C                 2.0243116634       50.9230787988       20.4405363770
C                 3.3932785540       50.7484857518       21.0124325310
O                 3.8027187632       51.4692746101       21.9711939559
H                 1.6593538798       50.2549818966       18.4958540075
H                 1.9384772328       51.9205058834       19.9997523216
H                 1.2996536517       50.8679444863       21.2844857372
N                 4.1332595879       49.7642497939       20.5063162825
C                 5.4807677243       49.4780930111       21.0052312685
C                 6.4527831850       50.4797755207       20.3670044253
O                 6.6250921301       50.5110990006       19.0949153953
C                 5.8847278929       48.0285601225       20.6872380176
C                 4.8364506112       47.0177715635       21.1940984957
C                 7.2502182716       47.7641348731       21.3551455346
C                 5.0468024997       45.5915869938       20.6010898703
H                 3.7649782234       49.2510022137       19.7315352766
H                 5.4540633560       49.6469267298       22.0787813447
H                 5.9793009166       47.9265940062       19.5960541079
H                 4.8853612719       46.9622695435       22.2731317594
H                 3.8304121043       47.3576136038       20.9360977747
H                 7.5967519324       46.7645800172       21.1325204693
H                 7.9919469773       48.4897172492       20.9988446920
H                 7.1631653972       47.8719078039       22.4185321958
H                 4.2381942279       44.9648588786       20.9145705387
H                 5.0243403219       45.6604998851       19.5073760165
H                 5.9931272934       45.2004477325       20.9113762726
O                -2.7658310473       41.5824115248       13.0311456919
H                -2.8209775179       41.6781457050       13.9980992510
H                -3.6333490421       41.4509141917       12.7128310007
O                -2.2764105412       51.2807881395       18.5264025685
H                -1.8261009901       51.3837591077       17.7053002582
H                -3.1600208012       50.9709175441       18.3415337530
N                -7.3276124230       37.5305730482       12.0508213284
C                -6.6089054515       38.5579333515       12.7682116900
C                -7.3188775705       39.9638745310       12.6873311360
O                -8.5744528413       39.9539623312       12.5801399898
C                -5.1702947940       38.6441577246       12.2070524701
C                -4.3598394613       37.3598060845       12.5298658886
C                -3.1604611473       37.3018100632       11.5775653612
C                -3.8800064173       37.3855949017       13.9914076026
O                -6.5901149419       40.9568144658       12.7925556326
H                -7.3779372453       37.6965764304       11.0221065119
H                -6.6436036193       38.2615065550       13.8128527958
H                -5.2562530744       38.7880975034       11.1408878480
H                -4.7141280474       39.5234217185       12.6487757403
H                -4.9981807348       36.4982185537       12.3409175379
H                -2.5453675716       36.4294928751       11.8066104997
H                -3.4857385977       37.2741945763       10.5531193652
H                -2.5524406292       38.1962986195       11.7252567576
H                -3.3892337300       36.4403636206       14.2301431867
H                -3.1988134244       38.1797812281       14.1738519106
H                -4.7399354236       37.4960614674       14.6577358404
N                 2.0692791099       39.7273818990        2.9475647071
C                 1.7658298039       39.7368003263        4.3927441574
C                 2.8174373567       38.8804369004        5.1097713599
O                 3.1756382357       37.8176436857        4.6390527580
C                 0.3586884032       39.2149812839        4.7173302312
C                 0.1272929818       37.7122336605        4.4312976030
C                -0.9955576096       37.1539511756        5.3433145010
O                -1.5858059604       37.7885987770        6.2121310858
N                -1.2855125647       35.8402953665        5.0501799865
H                 2.1623111364       38.8395914200        2.4960445316
H                 1.8395079544       40.7702276720        4.7401025280
H                 0.1976878274       39.4037825408        5.7819250873
H                -0.3762276812       39.8175834110        4.1933945521
H                -0.1951318263       37.5529655086        3.4097433739
H                 1.0113977982       37.1165905524        4.6366013830
H                -0.5416417761       35.3266372570        4.5819790087
H                -1.9750868240       35.3909453507        5.5989044843
N                 3.2665597660       39.4185354991        6.2431335831
C                 4.1426900994       38.6225290547        7.1039117139
C                 3.5224973372       38.5224800933        8.5009870741
O                 2.6877626178       39.3685736492        8.9186342648
C                 5.5529612404       39.2455104281        7.1582305457
C                 5.5103782119       40.6779622210        7.6070315411
C                 6.2266263145       39.0827881560        5.8218579466
C                 6.8666030290       41.1516982778        8.2412148684
H                 2.8598162830       40.2689149987        6.5792910745
H                 4.2109812888       37.5929363812        6.7068357965
H                 6.1175017957       38.6335542299        7.9137630312
H                 5.2369162550       41.3418966790        6.8119173846
H                 4.7500897690       40.7956756250        8.4089734266
H                 7.2373947720       39.4954669089        5.8516337441
H                 6.2922325895       38.0416777537        5.5119380990
H                 5.6660832722       39.6291448082        5.0694830600
H                 6.7800860362       42.1926630638        8.5435702552
H                 7.0970705293       40.5562784967        9.1019395113
H                 7.6546728841       41.0500140272        7.5092026031
N                 3.9478929172       37.4513464489        9.1911015179
C                 3.5335483097       37.3033031743       10.6282102141
C                 4.7276199028       37.6294530769       11.5149548352
O                 5.8618753229       37.1817975170       11.2556308573
C                 3.1482860016       35.8388017741       10.9058970576
C                 2.0113454134       35.4667457213        9.9853404591
C                 2.2702865136       34.7993398758        8.7911612459
C                 0.7109241521       35.9098666513       10.2823352403
C                 1.2485724273       34.5633614404        7.8872608657
C                -0.3066938230       35.6826946083        9.3987374836
C                -0.0297468491       35.0254251197        8.1888709530
H                 4.6646638710       36.8730501277        8.8766015278
H                 2.7081662873       37.9640332667       10.8301803362
H                 4.0068114070       35.1840637387       10.7513385314
H                 2.8440225147       35.7902145076       11.9365682251
H                 3.2816789109       34.4586293474        8.5855122084
H                 0.5370555817       36.4361614118       11.2026790132
H                 1.4442762362       34.0581448142        6.9552748656
H                -1.3102463754       36.0258000368        9.5941671680
H                -0.8077524628       34.8968346257        7.4600634359
N                 4.3992017562       38.3219503993       12.6019297921
C                 5.3633436268       38.6111861894       13.6843892667
C                 4.7983908401       38.1072491390       14.9759102376
O                 3.7216264372       38.5005251798       15.3851670061
C                 5.6109047693       40.1149962164       13.8148522596
C                 6.7481340514       40.3714374560       14.8145313212
C                 5.9821865254       40.7315537057       12.4288856542
H                 3.4356852696       38.5647194760       12.7686036381
H                 6.2977998820       38.0785647203       13.4287441812
H                 4.7053774955       40.5954186294       14.1623041929
H                 6.8856293995       41.4367148649       14.9368206894
H                 6.5095594048       39.9011188967       15.7629718252
H                 7.6728560190       39.9332622946       14.4508597170
H                 6.1805000207       41.7932808510       12.5578582156
H                 6.8621041885       40.2530413625       12.0304296046
H                 5.1698836568       40.6057229102       11.7282284822
N                 5.1469882196       38.2150181272       18.5994216000
C                 5.6710074715       39.2055633010       19.5744441816
C                 5.7054619599       38.6922676483       20.9391475956
O                 4.7006060303       37.9966726344       21.4101276393
C                 4.8448492678       40.5008312122       19.6037295331
O                 3.6857615309       40.3414475994       20.3044015043
C                 4.5129112732       40.9836158909       18.0939299717
H                 4.1501621434       38.0220611205       18.6242442050
H                 6.7017331582       39.4132677146       19.2296475785
H                 5.4186554269       41.2493816790       20.0986496569
H                 3.1103594612       39.6711486837       19.8507042565
H                 3.9273675712       41.8870059431       18.1956068893
H                 5.4382691038       41.2114587702       17.6024444116
H                 3.9418498617       40.2261807033       17.5931685188
N                -2.9516292543       43.5695322002       22.7099094040
C                -2.5124972203       44.1962674807       23.9451257047
C                -3.5741908104       45.2137640701       24.5060729166
O                -3.6012884564       45.3860493348       25.6734042519
C                -1.2021686730       44.9560173865       23.7533238984
C                -0.0095635208       44.1121968956       23.2599356797
C                 1.2012303113       45.0291902382       23.1141074237
C                 0.3038957825       42.9300264592       24.1942160613
O                -4.3187799706       45.7511973854       23.5877678641
H                -2.7092331804       43.9985467333       21.8459324119
H                -2.4329922444       43.4166036782       24.7125492178
H                -1.3763069765       45.7580721953       23.0256144486
H                -0.9828551017       45.4487075858       24.6983397311
H                -0.2730521953       43.7166162407       22.2637995743
H                 2.0599456276       44.4782463671       22.7305177255
H                 0.9614478397       45.8384338050       22.4230402428
H                 1.4427568447       45.4854291534       24.0628078150
H                 1.2184825297       42.4457915548       23.8778828120
H                 0.4336959009       43.2986830495       25.2071815826
H                -0.5149438537       42.2217857095       24.1858876888
H                -6.9213030099       36.7371742434       12.1750428938
H                 1.4133509116       40.1510875860        2.5000921500
H                 5.3071055414       37.4372642088       15.5165853213
H                 5.3157178610       38.4992323215       17.7623119298
H                 6.4992006835       38.8708156591       21.5206107901
H                 1.6837136487       37.7661171538       22.3289383750
H                 1.2302021598       43.7733553579        6.5611423336
H                 5.6075597359       51.2127973863       11.4874203515
H                 6.9617517465       51.1191707003       20.9433071302
H                -2.6096892716       42.7387364677       22.6564725340
