 229 
 
N                10.4205025747       36.9704047482        3.7986429150
C                 9.9780940456       38.3630889225        3.7477318089
C                 9.7779849532       38.9216646407        5.1284840337
O                 9.9416569541       40.1298860089        5.2923694643
C                 8.6309497525       38.5323520627        3.0324365179
O                 8.7906786706       38.4660091335        1.6518569449
H                 9.9611448522       36.2795888777        3.2125422654
H                10.7195544284       38.9795028379        3.2256294547
H                 7.9322289006       37.7737505379        3.4017844459
H                 8.2661788362       39.5394407586        3.2436665437
H                 8.8796501997       37.5364249853        1.4009731599
N                 9.3582162100       38.1210354923        6.1098422082
C                 9.1363902202       38.7035898388        7.4351737485
C                10.4184129432       39.3040085612        8.0053346792
O                10.4185664376       40.3768464096        8.6034786332
C                 8.6304130472       37.6694245840        8.4192337434
C                 7.2492533081       37.1194121704        8.0851828235
C                 6.1288487198       38.1363190222        8.1087983432
N                 4.9502014714       37.5046770276        7.5889799379
C                 4.0198080372       36.9431031369        8.3517352986
N                 4.1536897900       36.9418848321        9.6838032653
N                 2.9834674000       36.3685382665        7.7473862001
H                 9.1917944419       37.1322008661        5.9766121376
H                 8.4267805045       39.5298021934        7.3267563321
H                 9.3484085226       36.8486169646        8.4505697943
H                 8.5878028441       38.1380063971        9.4038722420
H                 7.2738736200       36.6557277488        7.0982536507
H                 7.0182781132       36.3455313014        8.8168170347
H                 5.9780337014       38.5380844122        9.1091716306
H                 6.3548458839       38.9799004599        7.4517705173
H                 4.8755555793       37.4620369416        6.5768317704
H                 4.8805670783       37.4658675665       10.1590986853
H                 3.3238753870       36.7265385827       10.2150948053
H                 2.8390051557       36.4878011015        6.7481084245
H                 2.1912550762       36.1334884053        8.3341229339
N                13.1794011662       40.0038397188        6.1576950454
C                13.7348722914       40.9867675362        5.1976638768
C                13.0168446689       42.3320348804        5.3850268608
O                13.6058049008       43.4140640428        5.4396392966
C                13.4922276162       40.3891641321        3.8034422229
C                14.3001785200       41.0059188492        2.6867086847
C                14.1181139583       40.1755888994        1.3401477363
O                13.0444196147       39.5518521081        1.1774699104
O                15.0542616422       40.2227169332        0.5306360701
H                12.8046766971       39.1470079222        5.7674182783
H                14.8022084223       41.1358111553        5.3933726697
H                13.7353655595       39.3245970194        3.8539287832
H                12.4298940786       40.4751578262        3.5643687037
H                13.9745233355       42.0266617562        2.4765530889
H                15.3668558497       41.0159394128        2.9050715316
N                11.6793977681       42.2882423453        5.5384460216
C                10.9625942749       43.5525292713        5.6416890958
C                11.2662422518       44.2995845429        6.9093225267
O                11.1364495354       45.5250926643        7.0139513461
C                 9.4870032772       43.2069489650        5.6143534916
C                 9.0542625900       42.8992642406        4.1661876868
O                 9.7985767582       43.0528825316        3.2068085638
N                 7.8266496348       42.4101362233        4.0623202268
H                11.1579430265       41.4321825142        5.3875853261
H                11.2126783246       44.1885643470        4.7816780085
H                 9.2903440612       42.3282218990        6.2249720635
H                 8.8812096413       44.0381340551        5.9790816935
H                 7.4650948249       42.1626192951        3.1557583433
H                 7.2818237138       42.1750667281        4.8844733130
N                11.6568184233       43.4997179232        7.9298464119
C                11.9219653354       44.0683325350        9.2666439454
C                13.1879182149       44.9448925075        9.2459019565
O                13.3570078587       45.8260706384       10.0886128588
C                12.0638592662       42.9503971205       10.2957948361
C                12.0942232289       43.4863481048       11.7640780109
C                10.6877060366       43.7931425770       12.2914144538
N                10.7767265667       44.4211307237       13.5990463358
C                10.4383110954       43.9430694204       14.7970644778
N                 9.7744512555       42.8064527463       14.9443551230
N                10.7847694933       44.6183911385       15.8981742920
H                11.6557996464       42.4973398889        7.8323407603
H                11.0806408363       44.7209982946        9.5179771309
H                11.2268117245       42.2612927624       10.1782144134
H                12.9890926428       42.4101974552       10.0898839940
H                12.5636616996       42.7361697628       12.3958838007
H                12.6992315673       44.3916265186       11.7882502045
H                10.1806334375       44.4843885319       11.6137464088
H                10.0931636119       42.8817184923       12.3487922993
H                11.2675303882       45.3130918759       13.5936197910
H                 9.2197328672       42.4473414543       14.1822301656
H                 9.5026974109       42.5674883290       15.8948568688
H                11.2604900306       45.5005800406       15.8249873704
H                10.4095386682       44.3029561077       16.7920468152
N                14.0768011581       44.5958828338        8.3147157276
C                15.3794065239       45.2496388841        8.1823079422
C                16.5869387535       44.4338590025        8.6024278923
O                17.7117381328       44.9292496059        8.6398355462
H                13.8243843868       43.9197560729        7.6088415673
H                15.5378593172       45.5684480436        7.1489625921
H                15.3476173263       46.1479761542        8.8068298972
O                 8.1437994659       41.7866997851        8.8686661720
H                 9.0046402655       41.3400259019        8.7762306951
H                 8.3360680028       42.7400578504        8.9802882865
O                10.5809973697       40.8165535113        1.2753039425
H                11.4697987861       40.4277169025        1.2031144378
H                10.6216510982       41.5067239952        1.9504399035
O                12.1848267117       43.9108788495        1.9566743397
H                12.2232022409       43.3747576227        1.1539382743
H                11.2986783619       43.7721137361        2.3198582930
O                11.0177021018       46.7781976004        4.4646293775
H                10.2481916364       47.3084108649        4.2503309449
H                10.9233390786       46.4753317379        5.3847397767
O                 6.5007253690       41.7221280344        6.7493609556
H                 7.0900129815       41.7045086285        7.5390719089
H                 6.1002209095       42.5938374289        6.7514613136
O                 3.5225085259       41.2891769917        6.5153229497
H                 4.4517103672       41.2479240406        6.7749405917
H                 3.0222118330       41.5769634573        7.2824848535
O                 6.5811858736       45.9074801124        2.2159603079
H                 6.7145214107       46.7673536288        1.7901023251
H                 6.6965265742       45.2615206378        1.5150198201
O                 4.0856468011       44.9251972003        2.8077720131
H                 4.9381913470       45.3884642212        2.7925607322
H                 3.6368626346       45.1590415788        3.6317026701
O                13.7264756584       48.6021152233        1.8353746080
H                12.8590139298       48.9969257538        1.7069857582
H                13.6823285222       47.6723715268        1.5906347025
O                 6.9092545317       48.2884835605        0.4804861340
H                 7.4388348091       49.0853404910        0.5915886616
H                 6.1930776443       48.5726299873       -0.1031425462
O                 9.8956823875       43.1158387813       -0.4804861340
H                10.8505708711       43.1760402896       -0.5915886616
H                 9.7836719677       42.3535381898        0.1031425462
O                13.6213498666       46.3092926112        4.7597589652
H                12.7567245065       46.5036636166        4.3719920388
H                13.6335783640       45.3635998895        4.9421970002
O                 2.1938855257       45.2564051929        4.8836827613
H                 1.5404339187       45.9449779470        4.6734418146
H                 1.7964108374       44.4188419654        4.6326508237
O                 6.9968022784       40.6786729539       11.1770098056
H                 6.2716530142       41.2914668162       11.3319926283
H                 7.4039909624       40.9746530223       10.3434529623
O                15.0826726452       45.9967922504        2.1919836813
H                14.4981038775       45.2343718753        2.1741392263
H                14.9979640527       46.3482108859        3.0954263482
N                15.7351218138       44.1610595920       -1.1212104812
C                14.8226961673       43.4809775946       -0.2345138105
C                13.7926048268       42.6137508950       -0.9788313849
O                12.6652713970       42.4834911476       -0.4900014616
H                16.7046756951       43.8770314553       -1.1100732280
H                15.3764422103       42.8186098251        0.4330555110
H                14.2509026881       44.2142408177        0.3369448300
N                 9.7893932658       38.0792659848       -2.0513208230
C                 8.7804687007       38.1894022462       -3.1231047794
C                 9.1024301930       37.3881555799       -4.3709186593
O                 8.1935209577       36.8425079495       -5.0067733972
C                 8.7942730899       39.7128764669       -3.4254888806
C                 9.3082104711       40.3855394536       -2.1649284845
C                10.1957500101       39.3764939159       -1.4514455503
H                 7.8129671181       37.8585023897       -2.7339037060
H                 9.4803209342       39.8993520625       -4.2528688404
H                 7.8070011151       40.0728455684       -3.7007586836
H                 9.8414400066       41.3051137103       -2.3898700164
H                 8.4711459381       40.6429320347       -1.5161679082
H                11.2550481382       39.5492988845       -1.6395374750
H                10.0212302845       39.3713196661       -0.3781526725
N                12.8847879183       53.8428524006        2.5645272273
C                12.7356170613       52.3830594752        2.4784562523
C                11.5114752158       51.9088454467        1.7025474083
O                11.2257890954       50.7071446159        1.6635615523
C                12.7399059391       51.8301343768        3.9152820928
C                14.1934419482       51.8508847496        4.4287473398
C                14.2740884125       51.4508534309        5.9105228913
N                13.9553199260       50.0292868215        6.0080835622
C                13.2851980380       49.4710645765        7.0236823341
N                12.8898450346       50.1800954937        8.0864727914
N                12.9746678734       48.1807967153        6.9447319828
H                12.5727234284       54.2828125527        3.4205942212
H                13.5970484403       51.9939055753        1.9221491852
H                12.1040818019       52.4528764790        4.5398304286
H                12.3549016403       50.8133391528        3.9022993296
H                14.7982304908       51.1738184584        3.8285508881
H                14.5829734126       52.8619946292        4.3218739888
H                15.2804860988       51.6444904978        6.2946169792
H                13.5593123214       52.0409183262        6.4802381093
H                14.3775640681       49.4168693810        5.3101837441
H                13.2074321679       51.1224071601        8.2820683732
H                12.3176751656       49.6950346011        8.7642945517
H                13.2624362676       47.6059105683        6.1567014166
H                12.4214680250       47.7700170093        7.6829536704
N                 6.6409770721       45.1197317928       12.1182001044
C                 6.8669179834       44.5363451218       10.8115931856
C                 8.0415007052       45.1292166459       10.0486070207
O                 8.6240887056       44.4441246686        9.1913296698
C                 5.6154273755       44.7302058438        9.9515483908
C                 4.4476845432       43.8555035664       10.3951551762
O                 4.6584415638       42.8660505446       11.1300077778
O                 3.3435970043       44.1737541819        9.9203544625
H                 6.0074870912       45.9090688371       12.1647114857
H                 7.0456460185       43.4635050247       10.9528045424
H                 5.2944062619       45.7727028658        9.9820255665
H                 5.8324036412       44.4777467411        8.9103367244
N                 8.3641894009       46.3954422930       10.3276121566
C                 9.2526192780       47.1340917172        9.4409101597
C                10.4614573740       47.8056387744       10.1194382151
O                11.3149924145       48.3132174665        9.3971301193
C                 8.4434052528       48.2550812569        8.7249914050
C                 7.4262126406       47.6926235802        7.7817586719
C                 7.7522806113       46.7137473499        6.8359138874
C                 6.1132190578       48.1155157415        7.8526627876
C                 6.7460688311       46.1957807625        6.0389342997
C                 5.1235298571       47.6276992460        7.0293293105
C                 5.4435272511       46.6502032498        6.1097754843
H                 7.7026570552       46.9448900531       10.8682608004
H                 9.6538197353       46.4375405557        8.7000185680
H                 7.9426543893       48.8556733450        9.4838891799
H                 9.1547402813       48.8738676292        8.1737229418
H                 8.7647728372       46.3562937486        6.7325126480
H                 5.8603297524       48.8572484983        8.5964170199
H                 6.9931092426       45.4418610294        5.3014971062
H                 4.1106563009       47.9910675339        7.1061634412
H                 4.6909704924       46.2301700894        5.4622802082
H                11.2873504977       36.9216951472        3.5615731926
H                11.2878177879       38.8220862714        7.8963111831
H                13.8230912710       39.7486411495        6.7326182918
H                16.4773829314       43.4728062929        8.8561505975
H                 6.2942277359       44.4980476458       12.6689030363
H                10.5317967408       47.8180715085       11.1168838531
H                15.4672554195       44.0473398697       -1.9728650001
H                14.0415923267       42.1696452462       -1.8395144843
H                 9.4058476422       37.7394606904       -1.3114389969
H                10.0498773702       37.3015212737       -4.6788770062
H                13.7538299944       54.0614796287        2.4810526497
H                10.9362086593       52.5712263068        1.2226307643
