 248 
 
N                -2.7431136116       88.0838475868        9.9092112511
C                -3.7122677436       87.5868458405       10.8862289937
C                -4.9544878066       88.4725211954       11.0069986088
O                -5.9773620182       87.9311131727       11.4018874076
C                -3.1799039806       87.4709490593       12.3262343139
C                -2.1278685698       86.4003630008       12.6345539364
C                -1.8707528214       86.4480945395       14.1548493945
N                -0.9423385231       85.4483635015       14.6823028220
C                -1.1024609606       84.4391525009       15.5665411558
N                -2.2480880027       84.1007475458       16.2158424981
N                 0.0297893403       83.8802612120       16.0178278751
H                -1.7865495048       87.8259542672       10.1216434333
H                -4.0499566409       86.5946112221       10.5627820702
H                -2.8015554485       88.4552848366       12.6146830893
H                -4.0581510120       87.2576406782       12.9381263519
H                -2.4913991598       85.4097286163       12.3549710977
H                -1.2052812810       86.5917242533       12.0864399137
H                -1.4500863759       87.4241173894       14.4158805554
H                -2.8209226057       86.3332604853       14.6782878134
H                -0.0286651817       85.4873316129       14.2533102993
H                -3.1058536315       84.2682243274       15.7097651699
H                -2.1919596227       83.2205708541       16.7038091895
H                 0.8922617017       84.0712228822       15.5278044363
H                 0.0458600374       82.9453892731       16.4229842268
N                 0.3138999450       79.1688305778        7.9771525003
C                -0.2758618640       78.8635768957        9.2634139172
C                -1.5584146058       79.6103869617        9.4705949007
O                -2.5030270704       79.1700525578       10.1353646130
C                 0.5619669659       79.1899989911       10.5002453953
C                 1.7178704035       80.1255908871       10.1617270887
C                -0.3112866348       79.6699548382       11.6778117828
H                 1.3190876995       79.2517990672        7.8949351854
H                -0.5274698482       77.7874082809        9.2772813824
H                 1.0055409131       78.2420732304       10.8334521767
H                 2.2299404993       80.3665298413       11.0902507014
H                 2.4280267476       79.6286878775        9.5050986525
H                 1.3718972482       81.0395159506        9.6935011088
H                 0.3257823537       79.7372212190       12.5585977786
H                -0.7561492793       80.6471305054       11.5151627227
H                -1.0949992451       78.9523453959       11.8967091867
N                -1.5072370264       80.8504941033        9.0432492814
C                -2.6265268308       81.7185707949        9.2782881172
C                -3.8738837300       80.9772493491        8.9771256002
O                -4.9371871046       81.1522974491        9.5456949411
C                -2.5237565468       82.8961062441        8.3358630946
C                -3.7224547727       83.0114473303        7.4142462591
C                -2.2346788806       84.1278554359        9.1755495751
H                -0.6716560898       81.1767300769        8.5694276108
H                -2.6453876596       82.0582459338       10.3165153337
H                -1.6507176497       82.7048598798        7.7092705353
H                -3.6485673829       83.9499961414        6.8638977858
H                -3.7298072760       82.2035105646        6.6929291271
H                -4.6524834570       83.0084151306        7.9729749517
H                -2.1223642971       85.0034812643        8.5396516314
H                -3.0462581118       84.2811654454        9.8796622060
H                -1.3234468557       83.9695499586        9.7447016317
N                -4.5130038140       77.9217955840        9.2898536230
C                -5.1214981862       77.1560505359       10.3116625936
C                -5.8702241628       77.9827278232       11.2773761247
O                -6.8386214452       77.5536191172       11.9000334366
C                -4.0543974429       76.3956176719       11.0618971900
C                -4.0045272241       75.3061940315       10.0228444911
O                -3.8438166224       75.6225837147        8.8399689545
N                -4.3627990247       74.1034641104       10.5325062817
H                -3.5109210152       77.9689169356        9.1769434560
H                -5.8390965251       76.4554880189        9.8627722452
H                -3.1459090742       76.9889437628       11.1306835717
H                -4.3695191879       76.0413975921       12.0433401574
H                -4.5582946801       73.3142655101        9.9354803015
H                -4.5940933854       74.0331067160       11.5106796249
N                -5.3185453275       79.1545590132       11.4794407589
C                -5.7597993057       79.8656040984       12.6534110547
C                -7.2874665953       79.7174181033       12.6895007317
O                -7.9116395274       79.4050563660       13.6927899626
C                -5.1839220229       81.2627415558       12.5453880364
C                -3.6658474206       81.1063966901       12.6103042213
C                -3.0545290701       82.5145399414       12.6724589613
O                -3.3959724498       83.3208235534       11.7863664864
O                -2.2865373330       82.7301198887       13.6342376311
H                -4.4525594353       79.3631621843       10.9943652571
H                -5.3704172440       79.3591875959       13.5543606335
H                -5.4680982611       81.7227097320       11.6018196123
H                -5.5443157111       81.8914740278       13.3634631251
H                -3.3820023140       80.5624497831       13.5169360802
H                -3.2854986037       80.5616863214       11.7507474923
N                -7.7470083961       80.0216270432       11.4560503605
C                -9.0046006268       79.6865924342       10.8620616740
C                -9.3692047997       78.2172833711       10.9257389689
O               -10.2332002452       77.8872842605       11.7387664671
C                -8.9895700757       80.1806108821        9.4327063754
C                -8.7650165859       81.6958526222        9.4180492726
C                -9.9783252665       82.5136781256        9.9628747578
N               -10.4617739063       83.5327636391        9.0133429424
C               -11.6748475113       83.7572334554        8.4924362163
N               -12.7722645978       83.2142104672        9.0143786676
N               -11.7818471968       84.6531805781        7.5192546570
H                -7.0106011880       80.1363195543       10.7720388618
H                -9.7882163017       80.1822335804       11.4546520144
H                -8.1915804672       79.6809515152        8.8812908206
H                -9.9395052136       79.9299385171        8.9587840929
H                -7.8602767091       81.9354350435        9.9738963697
H                -8.5923536159       81.9825501215        8.3778501819
H               -10.7888008285       81.8238131556       10.1913657781
H                -9.6993968527       83.0115263572       10.8922084647
H                -9.7089423393       84.0770583369        8.6053659677
H               -12.7090298260       82.4719684649        9.6925191780
H               -13.6758376088       83.2692255937        8.5703141321
H               -10.9904121550       85.2119183284        7.2291033869
H               -12.6906211242       85.0319767772        7.3055484823
N                -8.8577380791       77.4053214582        9.9933355694
C                -9.2654878389       76.0083701979        9.8811771011
C                -9.7230986425       75.4569657672       11.2671025792
O               -10.7265201781       74.7521852155       11.3563489511
C                -8.2042189110       75.0386574929        9.2900431875
C                -7.7125859076       75.1194701078        7.7984128701
C                -8.4826203326       74.3944950548        6.6501359916
N                -8.8937220801       72.9535157626        6.7405099812
C                -9.2202495942       72.0989077886        5.7312085785
N                -8.6917990544       72.1941842206        4.5166745856
N               -10.1054846383       71.1141871008        5.9567642564
H                -8.0278315261       77.6765757176        9.4785349548
H               -10.1600620532       75.9735933984        9.2398626961
H                -7.3151775333       75.1327059904        9.9188615781
H                -8.5901499396       74.0309090995        9.4614251667
H                -7.6733810082       76.1634092850        7.4918151117
H                -6.6848609434       74.7535959599        7.7997005158
H                -9.4133721171       74.9529793798        6.4898384405
H                -7.8669153607       74.5137088513        5.7592838732
H                -9.3446219532       72.7455527416        7.6231762385
H                -8.1421809796       73.0177745210        4.2676886909
H                -9.0034345640       71.6017921802        3.7661457283
H               -10.3664828743       70.9196528669        6.9123885228
H               -10.0168281935       70.2450087681        5.4322446553
N                -8.9613299830       75.7343527596       12.3220645787
C                -9.4667599922       75.4057059416       13.6344142880
C               -10.7775395211       76.1456518932       13.9513948513
O               -11.8243573211       75.5215673132       13.8199184871
C                -8.3527356403       75.5298021495       14.6659826565
C                -7.5362897264       74.2264609711       14.6868774288
C                -6.0032365771       74.4495931280       14.8602202425
O                -5.6229422338       74.7739836439       16.0075316094
O                -5.2991795052       74.2857483876       13.8379044126
H                -8.1677859140       76.3595114798       12.2565104576
H                -9.7935342969       74.3551390666       13.5824860220
H                -7.7072470676       76.3765491826       14.4139626307
H                -8.7630540357       75.7218246869       15.6582941489
H                -7.8585157970       73.5881342033       15.5107511587
H                -7.6565969758       73.6795457135       13.7503446376
N               -10.7132909795       77.3977379847       14.4027349357
C               -11.8735047227       78.1849179144       14.7764812259
C               -13.1296521568       77.8121326834       14.0054382433
O               -14.2046003360       77.7824255576       14.6064938352
C               -11.6902457771       79.6768175425       14.4644966328
C               -10.5856285531       80.3630642223       15.2588336004
C               -10.0528941204       81.6334136312       14.5028743134
O               -10.8416990154       82.1514310789       13.6903272614
O                -8.8970484719       82.0199121660       14.7736238517
H                -9.8360908833       77.8948174474       14.3302832712
H               -12.0755833488       78.0368044472       15.8475725296
H               -11.4544298657       79.7616014959       13.4013566208
H               -12.6390361480       80.1893490076       14.6298255219
H               -10.9363726505       80.6586246176       16.2500607545
H                -9.7176139046       79.7123673378       15.3862917243
N               -12.9949317411       77.6550079871       12.6824145055
C               -14.1260930763       77.3328790744       11.8227229392
C               -14.4560173550       75.8137648259       11.8904046249
O               -15.5626443469       75.4748830069       12.3286480102
C               -13.9211363470       77.9692806634       10.4202323857
C               -15.1753032574       78.5231029835        9.6880793408
C               -15.0060663674       79.7275249735        8.5783133275
O               -15.4666988483       79.5571846084        7.4318759112
O               -14.4632070804       80.7714079874        8.9865556938
H               -12.0627077712       77.6431992511       12.2832897505
H               -14.9968672512       77.8015016359       12.3031174095
H               -13.2414022744       78.8103852017       10.5811965739
H               -13.4228394104       77.2381549314        9.7797679056
H               -15.7185015147       77.7058010699        9.2061777875
H               -15.8435108011       78.9604503530       10.4356060878
N               -13.5728798499       74.8794541891       11.4948836713
C               -14.0323422623       73.5126022560       11.6225571859
C               -14.7096953426       73.2333871595       12.9607275554
O               -15.7102856553       72.5410967160       13.0521732598
C               -12.9673035754       72.4561712577       11.4793771148
O               -13.6493937896       71.3502059007       10.9336120293
H               -12.5714402174       75.0413446646       11.4190829266
H               -14.7873533185       73.3224002981       10.8461008607
H               -12.1790088263       72.8126742796       10.8035254725
H               -12.5199485716       72.2244628858       12.4531960037
H               -13.1114432684       70.5571512038       11.0485482535
N               -14.0403109296       73.7244632827       14.0144543888
C               -14.7529465432       74.0190306951       15.2453481208
C               -16.2283998170       74.3722422058       15.1445213647
O               -17.0694528544       73.5029282707       15.3633550383
C               -14.1123820666       75.1375120736       16.0585768972
H               -13.2530183972       74.3413154194       13.8366951273
H               -14.7582746167       73.0905075446       15.8425449674
H               -14.6760290049       75.2796106340       16.9779484513
H               -13.0912172841       74.8644758975       16.3182123663
H               -14.0895854135       76.0695730008       15.5158364974
N               -16.5905287429       75.6573750692       15.0777954865
C               -17.9397897982       75.9075728105       15.5731978545
C               -18.9406096118       75.0509146754       14.7715379139
O               -20.0067117983       74.6716665354       15.2524415613
C               -18.3168659684       77.3758499943       15.5896090481
H               -15.9520147415       76.4224080487       14.9140453315
H               -18.0037724365       75.5258796796       16.6031275663
H               -19.3214777750       77.4766335527       15.9874452156
H               -17.6270875320       77.9292038940       16.2201583328
H               -18.2876641143       77.7933046984       14.5835280323
N                 2.4820747772       72.8063108664       15.5138555677
C                 1.0602458395       72.7554424161       15.5462157091
C                 0.5583192277       72.6042791092       14.1270672951
O                -0.0477390349       71.5951156237       13.7853346205
C                 0.4807820973       73.9023265099       16.3658639568
C                -1.0521080534       74.0460508134       16.2827787172
C                -1.9746956048       72.8783519278       15.6684472097
O                -2.3154930747       72.9429178391       14.4591933369
O                -2.3657236973       72.0253474366       16.4876865223
H                 2.9272383125       73.6547027510       15.8248252920
H                 0.7435433028       71.8189506615       16.0457458791
H                 0.7727842499       73.7372718363       17.4048338932
H                 0.9364122826       74.8378214282       16.0279260703
H                -1.4577901744       74.2021748915       17.2840904725
H                -1.2892991440       74.9279497870       15.6763554282
N                -2.0261367212       69.7563330357       13.0508791720
C                -3.2131270884       69.8398140163       12.2767124529
C                -3.1292618413       69.1546669783       10.8851015135
O                -4.1045328506       68.5202823567       10.4445665978
C                -3.6512157337       71.2900951935       12.1610058417
C                -5.1332761314       71.2312485113       11.8177486011
O                -5.9375679986       70.9953723999       12.7019729417
N                -5.5083777378       71.3764509679       10.5020630457
H                -1.6301181437       70.5952309460       13.4669791156
H                -4.0078521986       69.2775591835       12.7631078955
H                -3.5228808606       71.7933462813       13.1212007048
H                -3.0536438701       71.8003463759       11.4045947002
H                -6.4806723938       71.1575626612       10.3330125564
H                -4.8570429635       71.0506318217        9.8051463223
H                -2.9377251586       87.7499617493        9.0964095573
H                -4.9024312281       89.4421131950       10.7678721423
H                 0.0969551517       78.5250739600        7.3868031345
H                -3.8794311636       80.2771139852        8.2631370161
H                -4.7897561501       77.6248055843        8.4866070329
H               -18.7310449649       74.7870799361       13.8300104904
H                 2.8179468828       72.1572826180       16.0391671529
H                 0.7201114864       73.3309646856       13.4594211777
H                -2.1630479622       69.2098805623       13.7527659197
H                -2.2914333948       69.2235811640       10.3435349624
