 66 
 
N                24.3255606430       32.4939945895       22.6261441883
C                25.2881822839       31.4210984569       22.6089639008
C                24.8017412079       30.2099081524       21.7932434084
O                25.5924373948       29.5943834512       21.0617184841
C                25.7218518043       30.9918548645       24.0139520226
C                26.4570284176       32.1444862231       24.7033038282
C                27.7807291423       32.5304665274       24.0206729347
O                28.5172134929       31.6135756593       23.6093581038
O                28.0117261578       33.7459797685       23.7864772272
H                23.8783402826       32.7743700673       23.4976501003
H                26.1844731031       31.7825909370       22.0782676830
H                24.8553910884       30.6743915297       24.5994247548
H                26.3957441403       30.1392438300       23.9280502148
H                25.8176872884       33.0269197215       24.7489356386
H                26.6979624664       31.8500752896       25.7312264736
N                25.3391296371       30.8995139416       18.1317259426
C                26.6658369031       30.7117740462       17.6046462878
C                26.9700598631       29.2169111577       17.3409693034
O                27.6335684056       28.8595282611       16.3478050959
C                27.7172079235       31.2636173529       18.5956394265
C                27.5845039398       32.7749244775       18.7274460730
C                28.6258571396       33.2529050503       19.7645289505
C                28.4907729664       34.7278088173       20.0584344814
N                29.1705493039       35.0400743318       21.3448139465
H                25.1784589438       31.4243877213       18.9830796960
H                26.7606596001       31.2220657472       16.6376403940
H                27.5710894021       30.7792880986       19.5599655890
H                28.7076918660       31.0039707832       18.2216542491
H                27.7736039142       33.2513355140       17.7673000582
H                26.5859392119       33.0496959054       19.0634023890
H                28.4613146784       32.6920254241       20.6874278207
H                29.6231848865       33.0121134863       19.3988810569
H                28.9391432361       35.3277218887       19.2680103623
H                27.4378193032       34.9936987400       20.1532210603
H                29.0569690395       36.0620744787       21.5050717213
H                28.7450114946       34.5269384223       22.1556066522
H                30.1614492714       34.7870254654       21.3042292373
N                26.5202815316       28.3625833665       18.2911361801
C                26.7026136639       26.9347218806       18.1162232078
C                25.9331771992       26.4513740951       16.9078961262
O                26.4385031257       25.6301882228       16.1494815844
C                26.2572364431       26.0904478542       19.3160463982
C                27.1313481157       26.4315464280       20.5273631528
C                26.5899848545       25.8609937243       21.8375713183
C                27.5067706835       26.3293536417       22.9799053044
N                26.9136806060       26.0757994024       24.3179293961
H                26.0006382187       28.7027270280       19.0904611532
H                27.7660049537       26.7473206462       17.9179518333
H                25.2068979394       26.3031699069       19.5276538385
H                26.3489027177       25.0364585595       19.0569039205
H                28.1324236195       26.0414122972       20.3505172433
H                27.2014253495       27.5118170138       20.6246566142
H                25.5755739856       26.2284461718       22.0080750943
H                26.5555187726       24.7746819798       21.7830481607
H                28.4579360891       25.8020874018       22.9201142834
H                27.6944122799       27.3987732467       22.8685789746
H                27.5468704157       26.3900889851       25.0643560636
H                26.0114616673       26.5682705338       24.4386704925
H                26.7184186557       25.0720652666       24.4364145545
O                28.2319461183       29.3453039615       21.9449871153
H                28.4669994944       30.0937924989       22.5150682189
H                27.3759363111       29.5680462828       21.5527438277
H                24.7142658428       33.2510881774       22.3333685633
H                23.8471110656       29.9180554891       21.8524322113
H                24.8333999802       31.3316713981       17.5255267617
H                25.0137601208       26.8010446696       16.7278885565
