 497 
 
N                20.7374479231       39.3124901160       75.9252440106
C                19.6614613184       39.8577117999       75.1246622896
C                19.4266620086       41.3502951091       75.4021629671
O                18.9159870466       42.0885392320       74.5788006207
C                18.4398347432       38.9650432815       75.3603655945
C                17.2043049652       39.3497445435       74.6049036356
C                16.2796261360       40.1950226161       75.2030461363
C                16.9165250736       38.7796131861       73.3709463927
C                15.0566818797       40.4370961784       74.6097867007
C                15.6868463634       39.0123391062       72.7812217893
C                14.7536598209       39.8267750315       73.4039141266
H                20.4818494982       38.6686202974       76.6863565192
H                19.9496092807       39.7983527778       74.0679158564
H                18.7386033519       37.9494286426       75.0930017666
H                18.2237165598       38.9574187312       76.4325115860
H                16.4938321505       40.6164435499       76.1749371791
H                17.6331426606       38.1178273126       72.9105875216
H                14.3388780937       41.0730744754       75.1031379115
H                15.4317839654       38.5485269610       71.8417517159
H                13.7908920024       40.0004347226       72.9484313200
N                 9.1704512988       44.6861863254       69.7516683886
C                 8.7795524870       43.2986798413       69.9663857586
C                 7.8522923677       43.1577590828       71.1705827388
O                 6.8867003713       42.4042350486       71.1729625319
C                10.0430807033       42.4473945937       70.1007659671
C                 9.7687744107       40.9579795825       69.9451587930
C                11.0759265461       40.1734572786       69.5701212072
O                10.9142311569       39.0723280101       68.9964306204
O                12.1596057856       40.6921926344       69.8730038803
H                10.1607961272       44.8600182301       69.6645708553
H                 8.2063717035       42.9634732979       69.0894408513
H                10.7286372631       42.7454456142       69.3020481829
H                10.5309163660       42.6620435681       71.0529263807
H                 9.3617680765       40.5415994732       70.8699421562
H                 9.0352033346       40.7811403758       69.1554046611
N                 2.2242047661       37.7936998377       79.7660618205
C                 3.4261102348       38.4918148250       80.1686082948
C                 4.6144643214       37.9331971482       79.4096058764
O                 4.8022030957       36.7189480130       79.3539815035
C                 3.6738034579       38.3042975889       81.6750647592
C                 2.5581281994       39.0058505671       82.4594898544
C                 5.0474837072       38.8442060191       82.0542208554
C                 2.3346184590       38.3827348814       83.8287170961
H                 2.0697149655       36.8677174846       80.1579215768
H                 3.2743776426       39.5471884209       79.9392111668
H                 3.6345352681       37.2293071559       81.8830003675
H                 2.8081939976       40.0618319874       82.5701536382
H                 1.6296367174       38.9238713482       81.8913642101
H                 5.2092082835       38.7161256784       83.1213449025
H                 5.8443934587       38.3195091053       81.5327331749
H                 5.1157087415       39.9040815537       81.8252719671
H                 1.5120258999       38.8715120364       84.3438168386
H                 2.0999976424       37.3238153843       83.7313162701
H                 3.2189251342       38.4756662740       84.4525425952
N                 5.4589600252       38.7899576798       78.8474536144
C                 6.6337179055       38.2970615708       78.1362655385
C                 7.8648007814       38.2877758570       79.0620713754
O                 8.3525266363       39.3218427425       79.5113973764
C                 6.7879169800       39.3088927421       77.0021439980
C                 6.3375108895       40.6235557085       77.6325653555
C                 5.2272723932       40.2085237258       78.6083878906
H                 6.4568121712       37.2777521709       77.7867570930
H                 7.8088332708       39.3514071177       76.6345788394
H                 6.1238518040       39.0284910502       76.1831324853
H                 7.1582685390       41.0765178599       78.1857122737
H                 5.9849362954       41.3302995329       76.8856938479
H                 5.2945715271       40.7782026511       79.5363715479
H                 4.2392661581       40.3414444566       78.1589818707
N                 8.3487510957       37.0765493758       79.3464077754
C                 9.5771022364       36.9176283349       80.0821016500
C                10.7506200254       36.6246761449       79.1714162245
O                10.6493474427       35.8392043825       78.2363719649
C                 9.4618893425       35.7172934290       81.0235432734
C                10.8076869653       35.4113455999       81.6803629923
C                 8.4059638785       36.0251751473       82.0735960147
H                 7.9940191220       36.2541034872       78.8649711661
H                 9.7607937954       37.8368038869       80.6447758912
H                 9.1435593216       34.8606357746       80.4194896380
H                10.6769722333       34.6501651304       82.4443978702
H                11.5325493498       35.0558258840       80.9534585236
H                11.2088477081       36.3134887122       82.1396595913
H                 8.2105651284       35.1455678963       82.6805087236
H                 8.7610483154       36.8181547915       82.7275937454
H                 7.4873938453       36.3603953505       81.6024490987
N                11.8912110976       37.2169617958       79.5223982458
C                13.1806197534       36.8339307509       78.9839810882
C                13.9364860152       36.0662541599       80.0853188956
O                14.1871457269       36.6213446875       81.1527238731
C                13.9852575382       38.0837299320       78.6079539089
C                15.4258970612       37.7171811920       78.2830952294
C                13.3457821796       38.8183793422       77.4421876023
H                11.9118172393       37.7923810985       80.3575623083
H                13.0140489477       36.1978796195       78.1120307602
H                13.9904103682       38.7478082498       79.4822996024
H                15.9756917654       38.6015431295       77.9708738248
H                15.9279295239       37.3183260097       79.1632235164
H                15.4735985350       36.9802499709       77.4889193752
H                13.8246530980       39.7844325310       77.3068642345
H                13.4663134423       38.2520883211       76.5223080906
H                12.2858907584       38.9834782598       77.6159512042
N                14.2204216116       34.7869783412       79.8286658663
C                15.0533396024       33.9482634325       80.6750787850
C                16.4472736967       33.8530131648       80.0249914242
O                16.5500549161       33.4294188479       78.8768967541
C                14.4789751273       32.5219677922       80.7595478554
C                15.4742019698       31.6456873158       81.5017565460
C                13.0965200717       32.4807885424       81.3958116510
H                14.0970291091       34.4656731506       78.8693748883
H                15.1346178630       34.4176028666       81.6585805982
H                14.3971536470       32.1561909105       79.7281105061
H                15.0824777419       30.6419726068       81.6311674902
H                16.4178684063       31.5957245072       80.9649159569
H                15.6753103720       32.0574141698       82.4916160544
H                12.7390814708       31.4561694090       81.4242582684
H                13.1266934727       32.8647182011       82.4132272426
H                12.4000600584       33.0817687715       80.8183462296
N                17.5009604492       34.2065825102       80.7755480086
C                18.8597017179       34.0258193693       80.2983311786
C                19.6736897902       33.3182167025       81.3816850288
O                19.6106501017       33.6443973650       82.5605615174
C                19.6333300174       35.3301126990       79.9382876920
C                18.7899041842       36.5967172612       79.8347481014
C                19.5765217351       37.7425436479       79.1083728969
O                20.0701927602       37.4626820728       77.9912703074
O                19.6373980298       38.8526586909       79.6642359151
H                17.3550841877       34.6260337482       81.6855108648
H                18.7619479671       33.4039162896       79.4021928323
H                20.4104932393       35.4997511746       80.6889003576
H                20.1265361178       35.1914522867       78.9744287683
H                17.9025364124       36.4030361753       79.2262397957
H                18.4651194328       36.9557070110       80.8139373700
N                19.2235977655       27.6234810968       77.3896324418
C                17.8922353327       27.2953065933       76.9366583880
C                17.7117586518       27.4823167427       75.4471939428
O                18.2829339359       28.3293595265       74.7708085666
C                16.8373914762       28.1231116632       77.6738412734
C                16.5355782135       27.5729740527       79.0706694101
C                16.0216418423       28.7133894383       79.9396995676
C                15.5126306786       26.4415956706       79.0084352467
H                19.4980495304       28.5936167059       77.4034655016
H                17.7663095401       26.2289535042       77.1472762622
H                17.1992505402       29.1519056476       77.7313862954
H                15.9202685456       28.1552757144       77.0855531317
H                17.4646507715       27.1811849899       79.4987437686
H                15.8413808898       28.3731980551       80.9549095623
H                16.7582226504       29.5095531503       79.9793385018
H                15.1041412689       29.1223725407       79.5255184870
H                15.3797492872       25.9871249414       79.9868007274
H                14.5533562070       26.8305990713       78.6756790418
H                15.8282791958       25.6578242309       78.3219022998
N                15.2157767303       28.5160849031       73.8368046602
C                14.5550423407       29.7671997730       73.5623832913
C                14.8091329868       30.7127956241       74.7389209954
O                15.2944983185       30.2990529292       75.7670822073
C                13.0438514488       29.4977643471       73.4026671888
C                12.7204608645       28.3533913780       72.4342387873
C                13.1560672889       28.6443017483       70.9916940033
C                12.4638231087       27.7513685973       69.9659324661
N                12.8286420930       26.3145300295       70.1680087475
H                15.1098861665       28.1548920662       74.7745707586
H                15.0061016091       30.1707245488       72.6468002958
H                12.6568217292       29.2459180313       74.3910535121
H                12.5622938330       30.4166032471       73.0690729718
H                13.2081004589       27.4556104382       72.8127013223
H                11.6400511268       28.2155164411       72.4675273335
H                12.8967793895       29.6718031776       70.7441979518
H                14.2397337399       28.5509048427       70.9039124731
H                11.3789515359       27.8451586588       70.0431502622
H                12.7781125968       28.0412071081       68.9635852946
H                12.4335482282       25.7164138541       69.4235037642
H                13.8562909226       26.2138765986       70.1603931262
H                12.4879153668       25.9886282846       71.0832337385
N                14.3485550037       31.9802644258       74.5589997659
C                14.7210123369       33.0360954302       75.4719295476
C                13.5407352110       33.9083828303       75.8820591708
O                13.5311871115       34.5089517048       76.9489097581
C                15.8233731904       33.9124398031       74.8204210695
O                16.9134146458       33.0491270512       74.5819749538
C                16.2046003650       35.1074753240       75.6731072030
H                14.2613145781       32.2719948214       73.5925778332
H                15.1565154567       32.5864792787       76.3745531046
H                15.4489317713       34.2772606063       73.8459369952
H                17.7409867870       33.5002437072       74.7728306804
H                17.0444577392       35.6441532344       75.2356325456
H                15.3715144876       35.7998394035       75.7539492349
H                16.4844217756       34.7727027679       76.6716594442
N                12.5720344309       34.0215993416       74.9666268680
C                11.3901344136       34.8420659308       75.1681029161
C                10.2120411171       33.8637565620       75.3199445864
O                10.0161614979       32.9860548220       74.4868264947
C                11.2295991430       35.8736236653       74.0177943014
C                11.7483706732       35.3322005888       72.6867177624
C                11.4124636870       36.2105772259       71.4779964517
C                11.7746045817       35.4788457559       70.1782031553
N                11.1115471208       36.1026444993       69.0026333582
H                12.5266366595       33.3690497031       74.1958748750
H                11.5159698364       35.3789018822       76.1117866920
H                10.1753346415       36.1448006649       73.9331871207
H                11.7778633538       36.7787442724       74.2853154102
H                12.8318950950       35.2241456845       72.7471073997
H                11.2969939594       34.3502001453       72.5311390307
H                10.3445038258       36.4332286954       71.4885197846
H                11.9434732959       37.1614653060       71.5353505331
H                12.8535031202       35.5032614513       70.0240188820
H                11.4517331993       34.4385112496       70.2254462798
H                11.3711858034       35.6081003049       68.1391634549
H                10.0911471615       36.0770327190       69.1184694999
H                11.3486240888       37.1167549271       68.9235717565
N                 9.4918425000       33.9861840872       76.4311072487
C                 8.3462205329       33.1657335800       76.7584560107
C                 7.1500426613       34.0695824001       77.0825949030
O                 7.2895328833       35.0660385778       77.7883785190
C                 8.5760175647       32.3440169302       78.0478093700
C                 9.7418694900       31.4027804235       77.9728484783
C                11.0396645791       31.8915836532       77.8586009270
C                 9.5469687088       30.0316203693       78.0674849930
C                12.1171718097       31.0236923241       77.8202780119
C                10.6286659754       29.1686064049       78.0516508694
C                11.9165783178       29.6580858437       77.9278900839
H                 9.7113618765       34.7220704223       77.0976641527
H                 8.1341342608       32.5145477787       75.9079738752
H                 8.7362923169       33.0602239799       78.8591735597
H                 7.6532986918       31.7977637159       78.2573904158
H                11.2204792536       32.9557959543       77.8449233288
H                 8.5456340522       29.6409587711       78.1723828494
H                13.1169120975       31.4237810110       77.7294602739
H                10.4618152315       28.1083074267       78.1404033881
H                12.7676450491       28.9964850973       77.9229003932
N                 5.9712344883       33.6881754871       76.5964220096
C                 4.7243690075       34.3056061903       77.0094480948
C                 4.1755933470       33.5373762186       78.2095614914
O                 4.0720520624       32.3166913460       78.1324253947
C                 3.6751717796       34.1957907254       75.9073699837
C                 3.9570171471       35.1856447598       74.7855041291
C                 3.3553130221       34.7149537980       73.4641986881
C                 3.4409184762       36.5641450306       75.1723866543
H                 5.9092775521       32.8396759455       76.0463577827
H                 4.9294891254       35.3421517638       77.2865778604
H                 3.7036240648       33.1714370234       75.5336028982
H                 2.6866987822       34.3822642475       76.3316948157
H                 5.0381653808       35.2361107514       74.6485182548
H                 3.5580718625       35.4468183998       72.6886818743
H                 3.8052628360       33.7721253805       73.1573186437
H                 2.2809584214       34.5762673952       73.5485641562
H                 3.7654560328       37.2958609239       74.4399505133
H                 2.3548470124       36.5615563421       75.2032586153
H                 3.8198654652       36.8657919431       76.1468842240
N                 3.7218873132       34.2401579278       79.2528322893
C                 3.3015398955       33.5427014054       80.4467614968
C                 1.9193539730       34.0367588718       80.9011175445
O                 1.6606415423       35.2362860625       80.9809617500
C                 4.3227785071       33.7068360110       81.6203465606
C                 4.8597188527       32.3415681426       82.0439765144
C                 5.5331419688       34.5680339779       81.2774113339
H                 3.9462940213       35.2321922735       79.3366020507
H                 3.2649683860       32.4873923115       80.1648994962
H                 3.8007277340       34.1666317736       82.4680112834
H                 5.5574122193       32.4445047266       82.8715874791
H                 4.0627106070       31.6777557052       82.3514052382
H                 5.4036897534       31.8875780711       81.2192836047
H                 6.2068414403       34.5438698593       82.1257332597
H                 6.0644076614       34.1738477877       80.4127015531
H                 5.2710950789       35.5982572063       81.0762535926
N                 6.5199362719       28.0288628232       86.8894843190
C                 7.3962148125       28.5387838083       85.8657906079
C                 8.7340797314       27.8137393220       85.8596242576
O                 9.2231569985       27.3919588277       84.8182965458
C                 7.6466848825       30.0340954334       86.0090492206
C                 8.2832039912       30.5887430019       84.7555967792
C                 7.8122036656       30.2551879005       83.4791157757
C                 9.3442999069       31.4749187321       84.8425539288
C                 8.4029777109       30.7797171530       82.3472813917
C                 9.9136510162       32.0279140113       83.6989914124
C                 9.4572927536       31.6709695501       82.4456766862
H                 6.0517656210       28.6858678010       87.5041810931
H                 6.9312586544       28.3411545175       84.8916085732
H                 6.6779661599       30.5123339942       86.1754854278
H                 8.2853782595       30.2358370152       86.8703522240
H                 6.9602319837       29.6049985651       83.3692583845
H                 9.7240658800       31.7636031079       85.8096195258
H                 8.0232884235       30.5044451129       81.3750441456
H                10.7295249262       32.7242717626       83.8110492790
H                 9.9027509841       32.0848895617       81.5543319355
N                10.6566597346       25.6147095040       82.9754216652
C                11.9990984081       25.8138169782       82.4663266771
C                12.8284707522       24.5441341412       82.6494451516
O                13.4593209201       24.0623090535       81.7144374897
C                12.6566344564       27.0343297169       83.1242164978
C                12.2852297539       28.3256171638       82.3723855563
C                14.1734380023       26.8891396720       83.1888346876
C                11.5957284912       29.3142185774       83.2990927200
H                10.3317248215       26.1504444255       83.7702565372
H                11.9359948261       25.9471847354       81.3780209602
H                12.2704887717       27.0857470300       84.1465341629
H                13.1829234267       28.7785983776       81.9526108655
H                11.6125990383       28.1046859529       81.5440869935
H                14.6175146789       27.7717491720       83.6418555049
H                14.4645200230       26.0220400623       83.7706166802
H                14.5728604878       26.7730387532       82.1841304221
H                11.3261343940       30.2076290215       82.7505518640
H                10.6886749311       28.8826195686       83.7140507502
H                12.2527546101       29.6031088627       84.1150055586
N                12.6953017611       21.8560356611       80.1231318351
C                13.3499643837       22.0332265336       78.8582011421
C                14.8493056678       21.7272135745       78.9286102180
O                15.5485364694       21.7432167023       77.9231279499
C                13.1151448494       23.4512939206       78.3451557510
C                11.6351239008       23.7282571913       78.0755323770
C                11.4403648472       25.2055614055       77.6826383787
N                10.6667234987       25.3952308286       76.4661988088
C                11.1198974722       25.3275441219       75.2116125282
N                12.4145690082       25.2470212949       74.9093279926
N                10.2478156580       25.4838538042       74.2120993004
H                12.6343695343       22.6720739301       80.7214397121
H                12.9371954440       21.2947782899       78.1578473193
H                13.4950160897       24.1387761474       79.1032931724
H                13.7166192324       23.5701546879       77.4411533426
H                11.2958242355       23.0700216457       77.2752524188
H                11.0606825714       23.4883362766       78.9696770452
H                10.9090137275       25.7267097175       78.4791178853
H                12.4155053001       25.6770782758       77.5628105171
H                 9.6662492950       25.3762166906       76.5924078203
H                13.1324069565       25.0254313783       75.5901085381
H                12.6920626760       25.0038538938       73.9740324088
H                 9.2560080327       25.5191632282       74.3909268572
H                10.5340993222       25.3014627177       73.2650160085
N                 2.7206742846       35.5019327811       88.1085248614
C                 3.5192634469       36.1808441893       87.1069882141
C                 3.1336565315       37.6473966181       87.0389889336
O                 3.9833340010       38.4999560324       86.8001421179
C                 3.4648444635       35.4811382739       85.7623995859
C                 4.3661445165       34.2623613580       85.7920593065
S                 6.0934205545       34.7804924094       86.0534487643
C                 6.7884455037       33.1287111918       86.1965129798
H                 2.4554962742       34.5417528612       87.9258669079
H                 4.5751097795       36.1695302861       87.4108014006
H                 2.4439045320       35.1976373889       85.4994084211
H                 3.8384331627       36.1635751990       84.9984483007
H                 4.1048887082       33.5989234166       86.6180521413
H                 4.3180193662       33.7193501546       84.8487448123
H                 7.8141594190       33.2241140357       86.5350274372
H                 6.2044090547       32.5789752998       86.9312995434
H                 6.7580168420       32.6436475457       85.2257272674
N                 9.6066863035       43.6127244466       78.7457011030
C                10.0444054518       42.3227633097       79.2420642148
C                10.3214138698       42.3942866155       80.7471954442
O                10.7337340311       43.4075215505       81.2932975959
C                11.3553685320       41.9295253638       78.5588942241
C                11.2008253079       41.5834572652       77.1028870467
C                10.2856605620       40.6245155229       76.6926656723
C                12.0237938725       42.1720217259       76.1531601819
C                10.1992176204       40.2577684451       75.3601221381
C                11.9352494317       41.8062125336       74.8218472278
C                11.0280642031       40.8414744531       74.4198794734
H                10.3443444517       44.2792086229       78.5487314560
H                 9.2508298724       41.5919964285       79.0590320559
H                12.0404824434       42.7718191334       78.6582309402
H                11.7879197213       41.0757580877       79.0895491769
H                 9.6616593942       40.1440119643       77.4316792396
H                12.7321656923       42.9259690839       76.4652194519
H                 9.4972916215       39.5014021040       75.0484853087
H                12.5691761078       42.2779434789       74.0866442331
H                10.9646542724       40.5547780229       73.3804160164
N                10.1220530065       41.2488895957       81.4150864267
C                10.7078484747       41.0084777181       82.7279124160
C                11.8260233589       39.9829825910       82.4979486718
O                11.6145866399       38.9118895209       81.9377853386
C                 9.6658860087       40.5598834767       83.7729983575
C                 8.5574471392       39.7398362889       83.1264372471
C                10.3617207324       39.7574579290       84.8638258484
H                 9.7687990557       40.4403990792       80.9156825958
H                11.1536934777       41.9545909796       83.0531090135
H                 9.2393378644       41.4677912122       84.2144262674
H                 7.8752584636       39.3659247571       83.8852234614
H                 8.0022454635       40.3292009118       82.4029588268
H                 8.9931622247       38.8929854240       82.6056920981
H                 9.6636246161       39.5279020150       85.6649204073
H                10.7435238412       38.8230835522       84.4586802003
H                11.1898651670       40.3199208211       85.2897094911
N                13.0525588867       40.3809194732       82.8494932927
C                14.2209338743       39.5489848118       82.6549482336
C                14.4940773328       38.7296424135       83.9382386081
O                14.5008583644       39.2666226016       85.0465708301
C                15.4502939432       40.4195700632       82.3604417841
C                15.4846771025       41.0935135728       81.0103378303
C                14.5760864513       42.0857269992       80.6388543624
C                16.5195760772       40.7927437200       80.1332360645
C                14.7062038844       42.7822624279       79.4517977983
C                16.6461322952       41.4652769084       78.9343708574
C                15.7550748223       42.4765060454       78.5891333879
O                15.9075336637       43.1901276374       77.4458926097
H                13.1742800719       41.2174624860       83.3998469374
H                14.0041524411       38.8562109382       81.8363826900
H                15.5004903128       41.1829079603       83.1438718773
H                16.3342089264       39.7849296952       82.4496430834
H                13.7606161325       42.3549184017       81.2963789787
H                17.2487902764       40.0369927347       80.3880405870
H                14.0271276754       43.5852535876       79.2052084859
H                17.4614864067       41.2106034999       78.2719002743
H                16.6547774399       42.8352592493       76.9371244878
N                14.7183244693       37.4325150508       83.7498401499
C                15.1147464216       36.5204002989       84.7881899218
C                16.4044829637       35.8434579417       84.3865205830
O                16.5772123609       35.4800897738       83.2276339849
C                14.0997328731       35.3902438875       84.9380329774
C                12.7320349249       35.9453055011       85.2478567007
S                11.6583982942       34.5593561426       85.6491430808
C                10.0881108507       35.4768660704       85.6861706708
H                14.6851479667       37.0373771623       82.8098579437
H                15.2381460859       37.0641181400       85.7287206641
H                14.0717030480       34.8181150910       84.0076731086
H                14.4351891911       34.7309799920       85.7431237019
H                12.7734726067       36.6161731132       86.1112807747
H                12.3265379274       36.4841121606       84.3911783365
H                 9.3375110756       34.8003377976       86.0725763229
H                10.1972533057       36.3277261146       86.3510394917
H                 9.8358529331       35.7979789311       84.6813849345
N                10.0304155493       33.0413740002       69.0410629239
C                 8.2823629089       33.3979815446       71.2642532902
C                 7.5101435973       32.4194350062       71.8845002825
O                 6.2876776769       32.1802900158       71.6435748873
C                 7.5241680046       34.6299328315       70.8038023797
C                 7.5725639756       35.6948922105       71.8776745736
C                 7.1667484122       35.3771903307       73.1579538953
C                 8.1148953097       36.9548403276       71.6176010925
C                 7.2995722688       36.3333191346       74.1994162874
C                 8.2324426352       37.9262654821       72.6577302563
C                 7.8134283079       37.5849256843       73.9175665858
H                 9.3235775021       33.7695861337       69.0437970877
H                10.1586532100       32.8634391408       70.0345397353
H                 9.5281833577       32.2180555732       68.7147739396
H                 9.1919580110       33.6512159113       71.8175281538
H                 7.9075355734       35.0842895994       69.8781335385
H                 6.4771563365       34.3429002778       70.6423065226
H                 6.7264169757       34.4066115221       73.3966983349
H                 8.2589951333       37.3075216221       70.6039558231
H                 6.9794800373       36.1195039394       75.2294405401
H                 8.5626689832       38.9476435207       72.4607733890
H                 7.8398334793       38.3135993738       74.7333466676
N                 8.2719332469       31.4670746964       72.6524017091
C                 7.5843816748       30.3745001311       73.3250988313
C                 6.2248161131       30.7052707327       73.9224525832
O                 6.0616525832       31.3611206304       74.9809247054
C                 8.4172556111       29.7277486991       74.4480015003
C                 8.0655531028       28.2466886199       74.5327983394
C                 9.9160835138       29.8470958866       74.2298003847
H                 8.8256726197       31.9928119190       73.3119070092
H                 7.4056136425       29.6226691209       72.5363788383
H                 8.1597594196       30.2435966224       75.3898388743
H                 8.5766951964       27.8239469632       75.3950518622
H                 6.9944099184       28.1102167154       74.6605188024
H                 8.3991812108       27.7684748441       73.6170550285
H                10.4355989549       29.2406851226       74.9685030250
H                10.1611945828       29.5430902129       73.2190475411
H                10.2580401138       30.8670557755       74.3725575048
N                 3.3482420826       29.0697809777       76.1609509387
C                 3.6686449315       28.3987593805       77.4189786764
C                 2.8153279128       27.1410843439       77.5748658775
O                 2.3223006162       26.5575549226       76.6114169229
C                 3.3653924005       29.4523007118       78.4713961960
C                 4.0347863075       29.2924409112       79.8374043337
C                 1.8475743595       29.6745022505       78.4761579223
C                 5.5077665607       28.9335285191       79.6841300610
H                 3.1535690329       30.0507704669       76.3044163549
H                 4.7340029553       28.1187588492       77.3902778276
H                 3.8406725764       30.3543687432       78.0846190797
H                 3.9776787640       30.2724414650       80.3171129994
H                 3.5409517787       28.5913386324       80.5141807139
H                 1.6550193487       30.7407783861       78.4020385604
H                 1.3938755813       29.1971825525       77.6132077667
H                 1.4096372447       29.2674954461       79.3821967993
H                 6.0377435627       29.0676069769       80.6269725818
H                 5.6524732032       27.9029114047       79.3659142576
H                 5.9876441395       29.5992592099       78.9610967513
H                21.2985078435       38.8470278346       75.3974593668
H                19.6957526005       41.7438067644       76.2812186141
H                 8.7968082945       44.9893138949       68.9910735016
H                 8.0228986105       43.6923701879       71.9982810390
H                 1.5026663639       38.2770437532       80.0021994784
H                20.2818357068       32.5630314801       81.1370346169
H                19.3307085281       27.3408355093       78.2373580792
H                17.0867765819       26.8882297266       74.9407770892
H                14.8948829518       27.8799309446       73.2869543860
H                 1.2063260990       33.3775003440       81.1398002722
H                 5.8528901719       27.5603687087       86.5079574325
H                 9.2309920203       27.6739737977       86.7160959591
H                10.0592963880       25.8019617139       82.3288200552
H                12.8625553802       24.0934966421       83.5415012499
H                11.8467985536       21.5884239130       79.9873884775
H                15.2744060869       21.5092168630       79.8071129598
H                 3.1714464455       35.4788208035       88.8871584694
H                 2.1839367898       37.9221580362       87.1891174629
H                 9.1548780996       43.5006784519       77.9754316424
H                17.1214860360       35.6900301684       85.0664959596
H                 5.3899918226       30.3952767660       73.4675106699
H                 4.0449544420       28.9972791613       75.5958532703
H                 2.6409540870       26.7647871799       78.4848077511
