 292 
 
N                14.2430000320       34.7178479207       79.8559307614
C                15.0442857659       33.8670263182       80.7158222443
C                16.4301842678       33.7266186577       80.0542082436
O                16.5078624953       33.3204093997       78.8980183698
C                14.4037995153       32.4703756219       80.7977857179
C                15.3621502641       31.5241028972       81.5043670750
C                13.0223119761       32.4996476690       81.4416307565
H                14.1480942721       34.4205075813       78.8893944609
H                15.1326323037       34.3456864786       81.6931341925
H                14.2890582718       32.1293026468       79.7621116793
H                14.9028549435       30.5476583454       81.6292741911
H                16.2771134169       31.4021548446       80.9328895331
H                15.6207075154       31.9099222496       82.4892678150
H                12.5784855470       31.5102077869       81.3964911916
H                13.0931532779       32.8065560251       82.4831400281
H                12.3767970105       33.1996366974       80.9174475128
N                23.2490615983       23.7140024402       81.3668868271
C                23.0697378793       24.0540217445       79.9569241958
C                22.4229308659       25.4338666027       79.7842498635
O                22.0664448210       26.1419017475       80.7111187046
C                22.1386636904       22.9736991737       79.3709882026
C                21.3730513873       22.4869544715       80.6152683155
C                22.3504777152       22.6517717745       81.7903580189
H                24.0585577954       24.0736389990       79.4891227628
H                21.4749092404       23.3781898956       78.6129597265
H                22.7309147822       22.1648996232       78.9472320669
H                20.5050381305       23.1242909060       80.7859062933
H                21.0444021360       21.4573390450       80.5152201409
H                21.7971706191       22.9143005579       82.6898171367
H                22.9393851358       21.7469961782       81.9631249765
N                22.2501439158       25.7923639382       78.4930694854
C                21.5710622184       27.0465311746       78.1689580059
C                20.2573261861       26.6219751728       77.5125018438
O                20.0358554428       25.4581778010       77.2062648357
C                22.5545871650       27.8224617130       77.2723148730
C                23.6898063182       26.8028124567       77.0468039694
C                23.0356653319       25.4390210588       77.3333202277
H                21.3349012543       27.5464081649       79.1112425732
H                22.0799999224       28.0775488042       76.3257683543
H                22.8964264677       28.7340348173       77.7550154912
H                24.0975266323       26.8497301406       76.0394617578
H                24.4929884373       26.9217447222       77.7722663455
H                22.3695963477       25.1290083724       76.5259147602
H                23.7523942583       24.6483478907       77.5266565216
N                19.3297234323       27.5992782739       77.4335555812
C                18.0314226514       27.2234596745       76.9302893427
C                17.8800748309       27.5172725764       75.4465160216
O                18.1657990238       28.5910078310       74.9245407375
C                16.8306765914       27.9326188344       77.5380527326
C                16.5793236799       27.7508130677       79.0262711045
C                15.1945870343       28.3258684649       79.2986520876
C                16.6704056629       26.2866841845       79.4378448242
H                19.5866717955       28.5721687317       77.4674573001
H                17.9577600294       26.1458103738       77.0940159901
H                16.8916605174       28.9958810137       77.2942852400
H                15.9625928718       27.5330030580       77.0057905356
H                17.3210563397       28.3142184985       79.6015437715
H                14.9954154805       28.3638109347       80.3661057951
H                15.1209044153       29.3312302367       78.8932473285
H                14.4432463900       27.6975286094       78.8279400472
H                16.2959743131       26.1609268995       80.4496466677
H                16.0807703907       25.6582845871       78.7725179024
H                17.7024683387       25.9443992559       79.4192774988
N                17.3399722647       26.5061051508       74.7687125539
C                16.9228024003       26.6725364035       73.3979152080
C                16.4265741035       28.1287888995       73.2001669789
O                16.8573000487       28.8450871120       72.3027800661
C                15.8975361803       25.5700087551       73.1014474305
C                14.8772221210       25.1933203455       74.2466859344
O                14.7944026115       25.8991714130       75.2744307484
O                14.1663357479       24.2073456453       73.9922929115
H                17.0983791779       25.6492283060       75.2388674430
H                17.7889863531       26.5608594860       72.7269169482
H                15.3191266814       25.8234402917       72.2130337381
H                16.4322272756       24.6430489033       72.8817666241
N                15.4006074838       28.4753099368       73.9887670048
C                14.6438352816       29.6740912872       73.7284553188
C                14.8581772655       30.6764703591       74.8540275152
O                15.4209646204       30.3535832480       75.8708414870
C                13.1580622243       29.3168653987       73.5837080197
C                12.8631595164       28.2476718963       72.5270339409
C                13.1634483997       28.7031248162       71.0869502490
C                12.1187355575       28.2250367008       70.0717621379
N                12.0746038093       26.7384388126       70.0061152637
H                15.1141670900       27.8399547132       74.7267925560
H                15.0612381266       30.0860465766       72.8017313409
H                12.8206233979       28.9483129854       74.5538562798
H                12.6010724297       30.2251985602       73.3590233880
H                13.4389823521       27.3567662561       72.7792758641
H                11.8017150815       28.0193166356       72.6323860342
H                13.1625642677       29.7916264611       71.0524818846
H                14.1626851755       28.3818110653       70.7929712221
H                11.1331644324       28.5860687235       70.3677148692
H                12.3625234225       28.6165065015       69.0847952977
H                11.3151172537       26.4171679010       69.3870804442
H                12.9668297863       26.3741359541       69.6398944993
H                11.9398488218       26.3482349577       70.9488110326
N                14.2937582578       31.9110928683       74.6650801589
C                14.6614326241       33.0175725422       75.5255867967
C                13.4711455107       33.8970581489       75.9030849319
O                13.4337181248       34.5471284248       76.9428824319
C                15.7858306170       33.8315689748       74.8355007778
O                16.9152583189       33.0060397010       74.7080392901
C                16.1229968758       35.1363629232       75.5247107122
H                14.2152642885       32.1722413044       73.6884338582
H                15.0810059183       32.6031864837       76.4513270701
H                15.4863164029       34.0448487440       73.8004133964
H                17.3224080233       32.8869454239       75.5730192253
H                17.0128420656       35.5745453739       75.0780584418
H                15.3104963197       35.8511189033       75.4273742799
H                16.3267825893       34.9686540502       76.5819031344
N                12.5079632871       33.9424418382       74.9801173634
C                11.2940224549       34.7212372133       75.1306643882
C                10.1711572445       33.7213452279       75.4319943420
O                 9.9948196258       32.7695577080       74.6841197780
C                11.0053534822       35.4656535467       73.8126190554
C                12.0150508556       36.5595200697       73.4774302852
C                11.6516933039       37.2622336923       72.1697779540
C                11.9466146866       36.3690763524       70.9588306124
N                11.3579930340       36.8896827263       69.6851679449
H                12.4905775256       33.2447332824       74.2488777823
H                11.4269929198       35.4146486061       75.9626793791
H                11.0046247460       34.7072840121       73.0313034726
H                10.0127052386       35.9099993261       73.8902232924
H                12.0208830357       37.2980341764       74.2811321642
H                13.0243589389       36.1498622616       73.4195693701
H                10.5974940714       37.5290306722       72.1979229179
H                12.2217506565       38.1880404553       72.0822840221
H                13.0277789347       36.3036058506       70.8320770189
H                11.5407266776       35.3738779402       71.1321207864
H                11.7273542034       36.3985282260       68.8633532536
H                10.3315527689       36.8583897627       69.7093717003
H                11.5836011876       37.9201678157       69.5348778295
N                 9.4274825058       33.9588562100       76.5033908930
C                 8.2864068387       33.1391507789       76.8680632462
C                 7.0687398260       34.0281030198       77.1861782700
O                 7.1515166669       35.0004673905       77.9401911117
C                 8.5486831220       32.3329500763       78.1555278627
C                 9.7106976911       31.4045496026       78.0177001773
C                11.0044973714       31.9084797974       77.9750398641
C                 9.4957957039       30.0373674303       77.9681244108
C                12.0800693409       31.0479512802       77.8813283693
C                10.5765117057       29.1827562359       77.9194517307
C                11.8671646962       29.6813362738       77.8676219923
H                 9.6581299107       34.7233417242       77.1300332009
H                 8.0770654357       32.4746728232       76.0273144114
H                 8.7365072312       33.0504543376       78.9598658701
H                 7.6393290926       31.7830760625       78.4039618483
H                11.1811417355       32.9716938262       78.0555081598
H                 8.4918705769       29.6474188833       78.0071714717
H                13.0849440784       31.4432260608       77.8388962725
H                10.4131602740       28.1170132008       77.9152974827
H                12.7162252738       29.0184501537       77.8240159342
N                 8.6032704936       24.5399181769       84.4769125563
C                 8.5028960519       24.5801498538       83.0429991432
C                 9.8769840133       24.8871908452       82.4463415660
O                10.2108601219       24.4091155896       81.3710002463
C                 7.4616606442       25.5663428404       82.4947565919
C                 6.1029370213       25.4479478592       83.1755714003
C                 7.3172811420       25.2230527510       81.0292233053
C                 5.0803347531       26.4093735058       82.5908898871
H                 8.0673025935       25.1740969853       85.0515343989
H                 8.2522098395       23.5692133783       82.6918905265
H                 7.8488729071       26.5828202548       82.6251838597
H                 5.7393367125       24.4230646330       83.0721600898
H                 6.2053848060       25.6469356688       84.2403168915
H                 6.8270511244       26.0266991750       80.4865457243
H                 8.2856563576       25.0481336704       80.5720026984
H                 6.7269357017       24.3167309682       80.9178590102
H                 4.1608152226       26.3842618992       83.1717208275
H                 5.4614059337       27.4282545811       82.5983968458
H                 4.8348196106       26.1412706480       81.5684294660
N                10.6861261839       25.7228455761       83.1060098455
C                11.9823740715       25.9442676238       82.5027124393
C                12.7915847616       24.6677621094       82.6675341951
O                13.4124299472       24.1498576543       81.7428466247
C                12.7466437468       27.1285126195       83.0981881095
C                12.4069548562       28.4358532640       82.3616689243
C                14.2523950488       26.8919616782       83.0395946809
C                11.4304520606       29.2172146492       83.2286829900
H                10.3843651189       26.2363067169       83.9230320206
H                11.8434341950       26.0842703572       81.4234871729
H                12.4537903359       27.2149993720       84.1473685980
H                13.3095993242       29.0276822074       82.2160255898
H                11.9705800338       28.2417894235       81.3839397277
H                14.7831449907       27.7695636504       83.4012000242
H                14.5478436534       26.0492981373       83.6515725649
H                14.5588613912       26.6950587268       82.0151879609
H                11.1551604772       30.1383301870       82.7329700960
H                10.5284631954       28.6442613745       83.4146260628
H                11.8861010181       29.4658704364       84.1818272274
N                12.0598154251       21.7715263258       82.8448347543
C                11.6949541324       20.6327106247       82.0329069145
C                12.2391958896       20.7327086828       80.5785367709
O                12.3337008264       19.7506189465       79.8494220131
C                10.1706210683       20.4410123067       82.0498173954
O                 9.5662083286       21.3759821380       81.1719956871
H                11.3105863978       22.3475292339       83.2115300427
H                12.1677766458       19.7318800655       82.4503259688
H                 9.9552949838       19.4164919343       81.7232697779
H                 9.8094965240       20.5876209230       83.0756749684
H                 8.6361366487       21.1421520972       81.0730746670
N                12.5853524604       21.9499124730       80.1778491189
C                13.2029631563       22.1128428768       78.9050823457
C                14.7048414713       21.8197758649       78.9404822734
O                15.3795827415       21.9279209977       77.9235606899
C                12.9661316896       23.5081019187       78.3500763303
C                11.5014770810       23.7911723670       78.0593220940
C                11.4186175888       25.2443452427       77.5649061987
N                10.4194446046       25.4364842507       76.5337763490
C                10.6576982108       25.4371945475       75.2244902026
N                11.8684195643       25.6474361928       74.7123450325
N                 9.6208412321       25.3674717386       74.3850499264
H                12.5685628793       22.7180311266       80.8388491235
H                12.7771771951       21.3571897341       78.2298227017
H                13.3400615660       24.2219546567       79.0880722777
H                13.5665601222       23.6038466986       77.4425599310
H                11.1509688831       23.1027897937       77.2895854470
H                10.9078338977       23.6430671337       78.9605804066
H                11.1674540165       25.8944725451       78.4053888019
H                12.3927351878       25.5535615453       77.1877845607
H                 9.4674895913       25.2772268181       76.8371156211
H                12.6943856826       25.6530075106       75.3019079156
H                12.0776806769       25.2893927961       73.7928986805
H                 8.6926435264       25.1670097263       74.7225430215
H                 9.7742467216       25.3129599193       73.3920827349
N                15.2393999168       21.4792047244       80.1189541101
C                16.6225110437       21.0827470560       80.2311116969
C                16.7411843945       19.5815001266       80.5372464182
O                15.8475948630       18.8992967738       81.0041796736
C                17.3249321108       21.8720536718       81.3266449455
C                17.3140027864       23.3600740681       81.0398164694
S                18.3642827703       24.2401781713       82.2740737179
C                17.1606638057       25.2365623701       83.1943119319
H                14.6675400318       21.3012573826       80.9371356493
H                17.0744993028       21.2835668559       79.2518965760
H                16.8083586771       21.6744571845       82.2694043245
H                18.3560053283       21.5305768388       81.4237268188
H                17.7320860360       23.5653931207       80.0557421752
H                16.3082033861       23.7681922429       81.0972671310
H                17.5850696399       25.4281458076       84.1733588754
H                16.9943156692       26.1765397666       82.6787429508
H                16.2442833143       24.6649059298       83.2801619216
N                18.9151809765       32.4499763189       85.3006164499
C                19.0200878891       31.2897647452       86.1594574987
C                20.4583840530       30.8658904889       86.4058526069
O                21.3636157035       31.0374236696       85.5993797441
C                18.1530325704       30.1674167175       85.6200429282
C                18.6865116658       29.6530136353       84.3318350447
C                18.5066143700       30.4015820258       83.1768105579
C                19.3145854653       28.4138731029       84.2825358875
C                18.8988657830       29.9010307247       81.9536976531
C                19.7453377360       27.9225382140       83.0708974140
C                19.5282799263       28.6624603727       81.9019348566
O                19.9184312391       28.1284095257       80.7032521835
H                19.5431404651       32.5853365064       84.5218210609
H                18.6104261627       31.5895401385       87.1312517877
H                18.1026725415       29.3776692839       86.3661397036
H                17.1536041690       30.5774808584       85.4740163652
H                17.9962891844       31.3513046772       83.2204128633
H                19.4233624804       27.8432404590       85.1902542928
H                18.6894602403       30.4546065702       81.0507143882
H                20.2313525729       26.9651595713       82.9745416413
H                19.5103442767       28.6403614402       79.9905180602
N                 8.2475288316       31.5335173987       72.6856958587
C                 7.5615113104       30.3903280170       73.3047869707
C                 6.2122429876       30.6837172492       73.9909478680
O                 6.1397311339       31.2712911585       75.0706060376
C                 8.3814486449       29.7153159839       74.4370886626
C                 7.8692869087       28.2831580187       74.5301717634
C                 9.8900504963       29.7058740223       74.2407226772
H                 9.1185271115       31.7766575629       73.1536690289
H                 7.3824984572       29.6724022850       72.4975633951
H                 8.1664446141       30.2424543193       75.3684245698
H                 8.3467176314       27.7869691824       75.3706157545
H                 6.7943070001       28.2441836785       74.6925381458
H                 8.0998284719       27.7407498809       73.6184877587
H                10.3262481976       29.0342712626       74.9734196442
H                10.1339653470       29.3623237673       73.2415870982
H                10.3202052869       30.6845076643       74.4211224322
H                13.4055220814       34.7703301054       80.1813171510
H                17.2552218710       33.9655053893       80.5663079240
H                24.1234151360       23.5834469012       81.5355911314
H                 6.1795623604       33.8231821819       76.7770684010
H                 8.3545953467       23.7271362831       84.7727947362
H                12.8339072673       24.2140125249       83.5576578495
H                12.5174255884       21.4911305955       83.5673104791
H                17.5977240922       19.0996836419       80.3523339486
H                18.1021924833       32.4656834818       84.9148665376
H                20.7079721067       30.4199951558       87.2654357358
H                 8.4432854788       31.3384934515       71.8291650682
H                 5.3581554981       30.3942881358       73.5587843010
