 314 
 
N                 2.4820000000       28.1990000000       99.8810000000
C                 2.6050000000       28.6140000000       98.4790000000
C                 1.1870000000       28.7980000000       97.9310000000
O                 0.9130000000       29.7960000000       97.2350000000
C                 3.4450000000       27.5990000000       97.6650000000
C                 3.8140000000       28.0240000000       96.2210000000
C                 3.7220000000       26.8650000000       95.1820000000
O                 4.1430000000       25.7150000000       95.5110000000
O                 3.2330000000       27.1050000000       94.0340000000
H                 3.0240000000       27.5640000000      100.0870000000
H                 3.0860000000       29.4510000000       98.3910000000
H                 4.2770000000       27.4450000000       98.1400000000
H                 2.9420000000       26.7730000000       97.6010000000
H                 3.2060000000       28.7250000000       95.9360000000
H                 4.7260000000       28.3540000000       96.2160000000
N                 0.2770000000       27.8630000000       98.2560000000
C                -1.0790000000       27.9870000000       97.7340000000
C                -1.8130000000       29.1330000000       98.4140000000
O                -2.3560000000       30.0050000000       97.7560000000
C                -1.8820000000       26.6710000000       97.8550000000
C                -1.2800000000       25.5100000000       97.0520000000
C                -3.3440000000       26.9120000000       97.4020000000
C                -2.2490000000       24.3530000000       96.7580000000
H                 0.4210000000       27.1780000000       98.7560000000
H                -0.9940000000       28.1840000000       96.7880000000
H                -1.8450000000       26.4130000000       98.7900000000
H                -0.9710000000       25.8540000000       96.1990000000
H                -0.5340000000       25.1440000000       97.5520000000
H                -3.8540000000       26.0970000000       97.5340000000
H                -3.7250000000       27.6300000000       97.9310000000
H                -3.3480000000       27.1550000000       96.4630000000
H                -1.7570000000       23.6260000000       96.3440000000
H                -2.6430000000       24.0520000000       97.5920000000
H                -2.9430000000       24.6670000000       96.1580000000
N                -1.8870000000       29.1110000000       99.7460000000
C                -2.6860000000       30.0660000000      100.5040000000
C                -2.2000000000       31.4930000000      100.3500000000
O                -3.0050000000       32.4340000000      100.4660000000
C                -2.6370000000       29.7060000000      101.9860000000
H                -1.4760000000       28.5420000000      100.2420000000
H                -3.5960000000       30.0140000000      100.1720000000
H                -3.1330000000       30.3710000000      102.4890000000
H                -3.0350000000       28.8310000000      102.1120000000
H                -1.7120000000       29.6940000000      102.2770000000
N                -0.8850000000       31.6730000000      100.1560000000
C                -0.3370000000       32.9870000000       99.8390000000
C                -1.0520000000       33.6220000000       98.6470000000
O                -1.5040000000       34.7770000000       98.7210000000
C                 1.1520000000       32.8630000000       99.5420000000
H                -0.2950000000       31.0490000000      100.2040000000
H                -0.4590000000       33.5650000000      100.6080000000
H                 1.5090000000       33.7420000000       99.3420000000
H                 1.5990000000       32.4930000000      100.3190000000
H                 1.2740000000       32.2750000000       98.7790000000
N                -1.1420000000       32.8770000000       97.5340000000
C                -1.9070000000       33.2050000000       96.3300000000
C                -3.1730000000       33.9830000000       96.6360000000
O                -3.4860000000       34.9220000000       95.9100000000
C                -2.2080000000       31.8890000000       95.5970000000
C                -2.6900000000       31.9430000000       94.1880000000
C                -3.5750000000       30.6410000000       93.8590000000
C                -4.4390000000       30.7880000000       92.5360000000
N                -5.6440000000       29.9250000000       92.4310000000
H                -0.7380000000       32.1230000000       97.4480000000
H                -1.3910000000       33.7910000000       95.7540000000
H                -1.3900000000       31.3670000000       95.5870000000
H                -2.8920000000       31.4230000000       96.1030000000
H                -3.2390000000       32.7320000000       94.0600000000
H                -1.9320000000       31.9650000000       93.5840000000
H                -2.9840000000       29.8800000000       93.7450000000
H                -4.1840000000       30.4800000000       94.5960000000
H                -4.7420000000       31.7080000000       92.4750000000
H                -3.8710000000       30.5760000000       91.7790000000
H                -6.2610000000       30.3240000000       91.9290000000
H                -5.4290000000       29.1460000000       92.0600000000
H                -5.9830000000       29.7760000000       93.2400000000
N                -3.8370000000       33.6920000000       97.7290000000
C                -5.0800000000       34.3620000000       98.0520000000
C                -4.9420000000       35.5640000000       98.9770000000
O                -5.9350000000       36.2670000000       99.1920000000
C                -6.0240000000       33.3390000000       98.6770000000
C                -6.3500000000       32.2310000000       97.7060000000
C                -7.2900000000       32.4210000000       96.6880000000
C                -5.6920000000       30.9880000000       97.7980000000
C                -7.5700000000       31.4210000000       95.8030000000
C                -5.9270000000       30.0000000000       96.8810000000
C                -6.8560000000       30.2260000000       95.8660000000
O                -7.0750000000       29.2310000000       94.9400000000
H                -3.5900000000       33.1050000000       98.3070000000
H                -5.4690000000       34.7100000000       97.2340000000
H                -5.6030000000       32.9480000000       99.4580000000
H                -6.8510000000       33.7780000000       98.9310000000
H                -7.7300000000       33.2370000000       96.6130000000
H                -5.0900000000       30.8380000000       98.4900000000
H                -8.2330000000       31.5360000000       95.1610000000
H                -5.4740000000       29.1900000000       96.9340000000
H                -6.5280000000       28.6040000000       95.0560000000
N                -3.7570000000       35.8620000000       99.4970000000
C                -3.6030000000       36.9650000000      100.4170000000
C                -3.2690000000       38.2710000000       99.7190000000
O                -2.2670000000       38.3410000000       98.9860000000
C                -2.5300000000       36.6070000000      101.4180000000
C                -2.8380000000       35.3000000000      102.1710000000
C                -1.9080000000       35.1340000000      103.4170000000
C                -2.3400000000       33.9700000000      104.3170000000
N                -1.1980000000       33.5370000000      105.2260000000
H                -3.0300000000       35.4350000000       99.3280000000
H                -4.4490000000       37.1240000000      100.8650000000
H                -1.6870000000       36.4950000000      100.9510000000
H                -2.4560000000       37.3210000000      102.0710000000
H                -3.7590000000       35.3120000000      102.4750000000
H                -2.6940000000       34.5450000000      101.5790000000
H                -1.0020000000       34.9630000000      103.1170000000
H                -1.9350000000       35.9480000000      103.9450000000
H                -3.0860000000       34.2480000000      104.8710000000
H                -2.5980000000       33.2140000000      103.7670000000
H                -1.4490000000       32.8410000000      105.7200000000
H                -0.4910000000       33.3050000000      104.7380000000
H                -0.9690000000       34.2060000000      105.7660000000
N                -4.1010000000       39.3130000000       99.9840000000
C                -3.9560000000       40.6480000000       99.3910000000
C                -4.0720000000       40.6040000000       97.8580000000
O                -3.3840000000       41.3360000000       97.1400000000
C                -2.6210000000       41.2660000000       99.7890000000
C                -2.2960000000       41.2040000000      101.2500000000
N                -2.7800000000       42.1220000000      102.1500000000
C                -1.5050000000       40.3600000000      101.9540000000
C                -2.3060000000       41.8410000000      103.3500000000
N                -1.5700000000       40.7490000000      103.2630000000
H                -4.7720000000       39.2580000000      100.5200000000
H                -4.6770000000       41.2050000000       99.7240000000
H                -1.9150000000       40.7990000000       99.3160000000
H                -2.6290000000       42.2010000000       99.5340000000
H                -1.0110000000       39.6500000000      101.6120000000
H                -2.4630000000       42.3310000000      104.1250000000
H                -1.1930000000       40.3470000000      103.9240000000
N                -5.0060000000       39.7830000000       97.3380000000
C                -5.0380000000       39.5110000000       95.8990000000
C                -5.1440000000       40.7720000000       95.0660000000
O                -4.8070000000       40.7640000000       93.8790000000
C                -6.2370000000       38.6280000000       95.4880000000
O                -6.1660000000       37.3120000000       95.9210000000
H                -5.6170000000       39.3830000000       97.7910000000
H                -4.2090000000       39.0420000000       95.7160000000
H                -7.0410000000       39.0230000000       95.8600000000
H                -6.2870000000       38.6220000000       94.5190000000
H                -6.0100000000       37.2900000000       96.7470000000
N                -5.7260000000       41.8230000000       95.6380000000
C                -6.0150000000       43.0830000000       94.9620000000
C                -4.7320000000       43.8660000000       94.7590000000
O                -4.2990000000       44.0810000000       93.6090000000
C                -6.9910000000       43.9400000000       95.7820000000
C                -7.2950000000       45.2340000000       95.0660000000
C                -8.2080000000       43.1380000000       96.0310000000
H                -5.9760000000       41.8320000000       96.4600000000
H                -6.4050000000       42.8740000000       94.0990000000
H                -6.6020000000       44.1900000000       96.6350000000
H                -7.9300000000       45.7450000000       95.5930000000
H                -6.4730000000       45.7370000000       94.9600000000
H                -7.6750000000       45.0320000000       94.1960000000
H                -8.8440000000       43.6740000000       96.5300000000
H                -8.5930000000       42.8750000000       95.1800000000
H                -7.9680000000       42.3490000000       96.5420000000
N                -1.6960000000       42.9190000000       95.2400000000
C                -0.9270000000       42.1150000000       94.2890000000
C                -1.3010000000       42.4290000000       92.8280000000
O                -0.4560000000       42.8670000000       92.0370000000
C                -1.1030000000       40.6430000000       94.6090000000
C                -0.3590000000       40.1800000000       95.8620000000
C                -0.8660000000       38.7340000000       96.2960000000
C                -0.0040000000       38.0330000000       97.3720000000
N                -0.6430000000       36.8570000000       97.9970000000
H                -2.0170000000       42.4710000000       95.9000000000
H                 0.0130000000       42.3330000000       94.3880000000
H                -2.0470000000       40.4660000000       94.7460000000
H                -0.7720000000       40.1210000000       93.8610000000
H                 0.5920000000       40.1350000000       95.6780000000
H                -0.5280000000       40.8000000000       96.5890000000
H                -1.7640000000       38.8170000000       96.6530000000
H                -0.8720000000       38.1620000000       95.5130000000
H                 0.8220000000       37.7330000000       96.9610000000
H                 0.1890000000       38.6700000000       98.0780000000
H                -0.0700000000       36.4560000000       98.5470000000
H                -1.3590000000       37.1110000000       98.4600000000
H                -0.8950000000       36.2790000000       97.3690000000
N                -2.5500000000       42.2280000000       92.4290000000
C                -2.8340000000       42.4480000000       91.0100000000
C                -2.7680000000       43.9210000000       90.6720000000
O                -1.9910000000       44.3360000000       89.8160000000
C                -4.1850000000       41.8840000000       90.5660000000
C                -3.9920000000       40.4380000000       90.0760000000
C                -3.0750000000       40.2540000000       88.8170000000
C                -2.6530000000       38.7630000000       88.6990000000
N                -2.1130000000       38.4020000000       87.3710000000
H                -3.2090000000       41.9800000000       92.9220000000
H                -2.1560000000       41.9560000000       90.5200000000
H                -4.8040000000       41.8840000000       91.3120000000
H                -4.5420000000       42.4180000000       89.8390000000
H                -3.5940000000       39.9240000000       90.7960000000
H                -4.8620000000       40.0750000000       89.8510000000
H                -3.5610000000       40.5070000000       88.0170000000
H                -2.2780000000       40.8000000000       88.9080000000
H                -1.9650000000       38.5800000000       89.3580000000
H                -3.4280000000       38.2040000000       88.8650000000
H                -1.5020000000       37.7610000000       87.4550000000
H                -2.7680000000       38.1100000000       86.8450000000
H                -1.7340000000       39.1140000000       86.9930000000
N                 2.7770000000       36.7400000000       93.3170000000
C                 1.5600000000       36.0850000000       93.7990000000
C                 1.7980000000       35.1670000000       94.9880000000
O                 0.8300000000       34.7660000000       95.6540000000
C                 0.9190000000       35.2260000000       92.7400000000
H                 3.0040000000       36.5730000000       92.5040000000
H                 0.9630000000       36.8100000000       94.0410000000
H                 0.1030000000       34.8430000000       93.0960000000
H                 0.7170000000       35.7760000000       91.9670000000
H                 1.5350000000       34.5190000000       92.4910000000
N                 3.0500000000       34.7770000000       95.2330000000
C                 3.3430000000       33.8270000000       96.3020000000
C                 3.7210000000       34.5030000000       97.6150000000
O                 3.8150000000       33.8350000000       98.6540000000
C                 4.4640000000       32.8950000000       95.8690000000
C                 4.1360000000       32.2030000000       94.5720000000
C                 5.3710000000       31.5440000000       93.9200000000
N                 4.9810000000       30.9130000000       92.6530000000
C                 4.9290000000       29.5960000000       92.4290000000
N                 5.2950000000       28.7300000000       93.3950000000
N                 4.5130000000       29.1570000000       91.2300000000
H                 3.7400000000       35.0460000000       94.7970000000
H                 2.5530000000       33.2900000000       96.4690000000
H                 5.2770000000       33.4080000000       95.7450000000
H                 4.5990000000       32.2180000000       96.5510000000
H                 3.4800000000       31.5080000000       94.7400000000
H                 3.7780000000       32.8530000000       93.9470000000
H                 6.0460000000       32.2170000000       93.7400000000
H                 5.7310000000       30.8640000000       94.5110000000
H                 4.7690000000       31.4330000000       92.0020000000
H                 5.5630000000       29.0250000000       94.1580000000
H                 5.2610000000       27.8840000000       93.2500000000
H                 4.2860000000       29.7200000000       90.6210000000
H                 4.4740000000       28.3120000000       91.0710000000
N                 3.2960000000       36.5100000000      101.0370000000
C                 2.2520000000       36.7080000000      102.0500000000
C                 2.6810000000       37.7210000000      103.0870000000
O                 2.4630000000       37.5430000000      104.2810000000
C                 1.9060000000       35.4060000000      102.7410000000
O                 3.0970000000       34.6910000000      102.8590000000
H                 4.0620000000       36.2760000000      101.3520000000
H                 1.4660000000       37.0470000000      101.5930000000
H                 1.5360000000       35.5830000000      103.6200000000
H                 1.2680000000       34.9050000000      102.2080000000
H                 2.9600000000       33.9690000000      103.2650000000
N                -2.6071690024       27.2179268716      107.0180067139
C                -1.4379197855       26.3907278213      106.7280067139
C                -1.2793728870       25.2421165376      107.7270067139
O                -1.1102279122       24.0811488475      107.3250067139
C                -0.1655348923       27.2488925395      106.7490067139
C                 0.0014893153       28.2355981258      105.5810067139
C                -0.9706965276       29.4594734000      105.6330067139
O                -1.9248469776       29.5021104576      106.4550067139
O                -0.7298710498       30.4183514367      104.8640067139
H                -2.4409986239       28.0621113332      107.0360067139
H                -1.5613972797       26.0145971147      105.8430067139
H                -0.1645022620       27.7691039712      107.5670067139
H                 0.6012964308       26.6547017269      106.7330067139
H                 0.9077756267       28.5798641882      105.5920067139
H                -0.1651003382       27.7641398696      104.7500067139
N                -8.6099155923       30.4829889503      103.4660067139
C                -7.9870152348       31.7940938830      103.3680067139
C                -9.0128728374       32.8149313721      102.9670067139
O                -9.0908767960       33.8980381916      103.5660067139
C                -6.8337481612       31.7705767169      102.3710067139
C                -6.3125509977       33.1638367489      102.2080067139
C                -5.7331540436       30.8182917867      102.8920067139
H                -8.3034322528       29.9001442346      102.9120067139
H                -7.6305884128       32.0287445181      104.2380067139
H                -7.1257826784       31.4483953382      101.5050067139
H                -5.5013594945       33.1368118507      101.6770067139
H                -6.9841169491       33.7010230973      101.7590067139
H                -6.1229421064       33.5354245156      103.0830067139
H                -5.0348855889       30.7468553458      102.2220067139
H                -5.3663733926       31.1790090638      103.7140067139
H                -6.1234577062       29.9463175606      103.0580067139
N               -10.4392735650       36.0155299042      105.0870067139
C               -10.3252378517       37.3700142549      104.5490067139
C               -11.6562806066       38.0414479334      104.3960067139
O               -11.7190647107       39.2441931917      104.3770067139
C                -9.6703091429       37.3936444559      103.1820067139
C                -8.3204362610       36.6995960407      103.2320067139
C                -7.3600884623       37.3822248605      102.3230067139
O                -7.6663127810       37.5726209389      101.1540067139
N                -6.1786259270       37.7398717220      102.8370067139
H               -10.2365530199       35.3924076204      104.5290067139
H                -9.7639053323       37.8557578114      105.1740067139
H               -10.2348474336       36.9314534583      102.5430067139
H                -9.5373445357       38.3133430007      102.9020067139
H                -7.9693081318       36.7314242809      104.1360067139
H                -8.4174201061       35.7775769878      102.9470067139
H                -6.0001381233       37.5727217776      103.6620067139
H                -5.5971760935       38.1367710684      102.3430067139
H                 2.6600512390       28.8988066647      100.4181856181
H                -4.2278051160       44.2133468322       95.5496564975
H                -1.1681788710       43.5599103525       95.5873309313
H                -3.3615554700       44.5702154102       91.1476167103
H                 2.6774903769       37.6330800368       93.3670587937
H                 3.8936725421       35.4876910649       97.6388264556
H                 3.0411176853       35.8632967740      100.4653270663
H                 3.1526559601       38.5563919032      102.8047571553
H                -3.2343481188       27.0834710842      106.3866842945
H                -1.3119293215       25.4258513139      108.7094432821
H                -8.4820538212       30.1506596716      104.2925710598
H                -9.6397886681       32.6238025907      102.2117277388
H                -9.8876455863       35.9250047870      105.7923518607
H               -12.4869151024       37.4912687645      104.3102791422
