 350 
 
N                 4.6459162898       34.8064079403      -18.5476716928
C                 4.9056406505       35.1278859763      -17.1123122681
C                 6.2193274292       34.4325437515      -16.7252200871
O                 6.7626136182       33.6901175565      -17.5297408346
C                 3.7008752460       34.5470255733      -16.3490150995
C                 2.5837679018       34.6059516000      -17.3863380994
C                 3.3007176846       34.1620613886      -18.6547144368
H                 4.6993793744       35.6428951522      -19.1368145870
H                 5.4178149177       34.1543321761      -18.8222272446
H                 4.9795607773       36.2064299305      -16.9650704517
H                 3.8897368641       33.5137690043      -16.0578952139
H                 3.4699807920       35.1154228858      -15.4535520596
H                 1.7569731620       33.9495604934      -17.1330897240
H                 2.2030071507       35.6215522572      -17.4843833169
H                 3.4226716555       33.0794546954      -18.6547813478
H                 2.7936698029       34.4719237476      -19.5653948815
N                 6.6542024357       34.6797032904      -15.4928284118
C                 7.7179950994       33.9196403326      -14.8669534928
C                 7.2755473780       33.6456837408      -13.4253332799
O                 6.9794109888       34.5742367682      -12.6834955756
C                 9.0313576506       34.7018279042      -14.8565255825
S                10.3705914765       33.6232490786      -14.1734376884
H                 6.1761425036       35.3410365530      -14.8934343234
H                 7.8453666858       32.9800403593      -15.4114604030
H                 9.3136309182       34.9905241884      -15.8669497896
H                 8.9553658461       35.5765155656      -14.2138729330
N                 7.2155833060       32.3605405713      -13.0872078133
C                 6.7602027333       31.9568909080      -11.7767975833
C                 7.1853420889       30.5226515177      -11.4759972712
O                 7.4918967585       29.7192746365      -12.3502110699
C                 5.2382385199       32.1445469775      -11.6451081439
C                 4.4370053736       31.4234894848      -12.7125487310
S                 2.7431999129       32.1139401080      -12.8095651519
C                 2.0379469215       31.4236456078      -11.2972904886
H                 7.4161107203       31.6214162721      -13.7558190740
H                 7.2231353494       32.6148464020      -11.0325040006
H                 4.9375840437       31.8289036378      -10.6488082716
H                 5.0362318752       33.2119900214      -11.7375693806
H                 4.8653961843       31.5902848336      -13.6995426970
H                 4.3594780920       30.3508166241      -12.5358130058
H                 0.9615081092       31.5410450411      -11.3713793560
H                 2.2726625885       30.3643368717      -11.2547006626
H                 2.4218163388       31.9554912561      -10.4317877226
N                 8.1109776805       25.2707392493      -12.4992503733
C                 8.4462012215       26.5473973433      -13.1012757633
C                 7.7531668404       26.7334541307      -14.4580277967
O                 7.4987328537       25.7922610992      -15.1945479680
C                 9.9596924752       26.6600397843      -13.3838223014
C                10.7477474908       26.9562299281      -12.1197472477
S                12.5424297714       27.0799904120      -12.4296579524
C                12.5660830883       28.4925076901      -13.5664196170
H                 7.9986192264       24.5029601975      -13.1472754363
H                 8.1416208704       27.3409717776      -12.4137035850
H                10.3082460038       25.7311872892      -13.8383091251
H                10.1110545193       27.4660724362      -14.1029632727
H                10.4230197762       27.8972422117      -11.6775087994
H                10.6348978619       26.1620686497      -11.3853511741
H                13.5380746874       28.9683434677      -13.4688212712
H                12.4232193008       28.1522313239      -14.5878112423
H                11.7851588975       29.1887396650      -13.2768196993
N                 7.5783895582       28.0237617020      -14.7718454732
C                 7.1081973481       28.5130544262      -16.0533752602
C                 7.7685360452       29.8766127439      -16.2685375795
O                 7.6383539564       30.7705691072      -15.4398735911
C                 5.5855430346       28.6917170295      -16.0573671783
H                 7.6775058820       28.7232296610      -14.0454667433
H                 7.4037675198       27.7864691843      -16.8154644254
H                 5.2497606369       29.0250851827      -17.0345748235
H                 5.1141675777       27.7399717495      -15.8272843391
H                 5.2999924537       29.4215427988      -15.3042326175
N                 8.4446191116       30.0499388586      -17.4050759812
C                 9.1021368273       31.3002394765      -17.7255760453
C                 9.4132322959       31.3246360768      -19.2118408038
O                 9.3842013974       30.3059714020      -19.8877201867
C                10.4353474590       31.4555547955      -16.9383503681
O                11.3989260563       30.5094013904      -17.3077462678
H                 8.6246573732       29.2827003229      -18.0383828292
H                 8.4354917094       32.1262647575      -17.4554511176
H                10.8098225150       32.4786637694      -17.0676707697
H                10.2274346794       31.2997391400      -15.8769318721
H                11.7800933438       30.7699744540      -18.1635673977
N                 9.6971575253       32.5307241103      -19.7168378329
C                10.3893817664       32.6640769574      -20.9809507742
C                11.8901074477       32.3634355046      -20.7342433507
O                12.2476006517       31.8062057700      -19.7087365543
C                10.1273534370       34.0563394937      -21.5624593313
O                10.7849941032       34.9943977100      -20.7374143253
H                 9.8089242322       33.3180464203      -19.0927861241
H                10.0049123676       31.8928915756      -21.6573244440
H                10.4898409700       34.1166199752      -22.5948555995
H                 9.0450707267       34.2419823696      -21.5578754512
H                10.6900466843       35.8750365219      -21.1126465659
N                12.6999986245       32.6235490585      -21.7678004248
C                14.1484113856       32.5265219854      -21.6821476235
C                14.6685627828       33.9704704680      -21.7183538192
O                14.2413368523       34.7043027307      -22.6085756619
C                14.6631002266       31.7561845183      -22.9057515803
C                16.1408471102       31.4003814233      -22.8044016509
C                17.0992609121       32.6228871753      -22.8002589681
O                17.9816345602       32.6410521945      -21.9313063286
O                16.9215590775       33.5061493301      -23.6800472276
H                12.3993571579       33.2462080035      -22.5066055417
H                14.4017520497       32.0204189755      -20.7506768386
H                14.0813186222       30.8382796852      -23.0113130866
H                14.5012794846       32.3861034439      -23.7809821499
H                16.3550331834       30.8350022640      -21.8952629453
H                16.4472240896       30.7746530734      -23.6461920686
N                15.4710333356       34.3946351487      -20.7461755980
C                16.0666404071       33.5936329454      -19.6939367301
C                15.0647928982       33.4178423716      -18.5577531591
O                14.1574048880       34.2308123250      -18.3841029130
C                17.2628390091       34.4149962727      -19.1757453508
C                17.4272000939       35.5316425517      -20.2077814438
C                16.0146083845       35.7396800896      -20.7354780291
H                16.4230159900       32.6455674106      -20.0991687657
H                17.0437391641       34.8112285079      -18.1818679123
H                18.1558020332       33.7957181322      -19.1134299966
H                17.8645473669       36.4361406546      -19.7940034813
H                18.0595246175       35.1735930407      -21.0214511713
H                15.4158408873       36.3656816369      -20.0651574251
H                15.9910076731       36.1512815871      -21.7444667209
N                15.2175417823       32.3564448816      -17.7672042117
C                14.3632474342       32.2374265125      -16.5958787644
C                14.6714266462       33.3944880514      -15.6474160696
O                15.7481751061       33.9655577260      -15.6404411211
C                14.7269451334       30.8800763970      -15.9681266408
C                15.6354270124       30.2135547904      -17.0062244452
C                16.2995243736       31.3956758948      -17.7040235142
H                13.3212939920       32.2873814661      -16.9192916930
H                15.2689442965       31.0246998257      -15.0334637689
H                13.8350316688       30.2910935547      -15.7724483268
H                16.3575535334       29.5377152522      -16.5597452767
H                15.0408414388       29.6561778436      -17.7273028042
H                17.1207274333       31.8084903543      -17.1063492480
H                16.6905735116       31.1492960055      -18.6907889259
N                13.6832461488       33.6911159484      -14.7751553784
C                13.8571889533       34.7433965116      -13.8011471661
C                14.3264754435       34.2353600784      -12.4330769294
O                14.7856646862       35.0360896822      -11.6200736938
C                12.6109575418       35.6006795996      -13.6060350713
S                11.2494075325       34.7551972468      -12.7402909215
H                12.7708447074       33.2655676934      -14.8683304381
H                14.6496078825       35.4037711771      -14.1796637633
H                12.8463474882       36.4372135622      -12.9462153273
H                12.2606979705       35.9906150213      -14.5601015153
N                14.1618106435       32.9386227307      -12.2073910698
C                14.5069904078       32.2538962400      -10.9842492565
C                15.1057781174       30.8979614596      -11.3615587812
O                15.0158380406       30.4653901617      -12.5031054684
C                13.2573390212       32.0641329954      -10.0914285732
C                12.7660831484       33.4125400747       -9.5795400314
C                12.1422750867       31.3341713255      -10.8346859492
H                13.9259793983       32.3176319367      -12.9743404306
H                15.2514871291       32.8372131485      -10.4358890722
H                13.5806562970       31.4606492776       -9.2403973148
H                11.8976790062       33.2815482912       -8.9415167960
H                13.5453030388       33.9067950026       -9.0084283402
H                12.4880999218       34.0651121870      -10.4022103400
H                11.3171061139       31.1457973199      -10.1538020378
H                11.7714241778       31.9387545758      -11.6584502535
H                12.5039461065       30.3856006928      -11.2221435447
N                17.2374673955       35.3082653391      -10.4356731078
C                18.1620491979       35.5519649860      -11.5151007871
C                17.9429353969       36.8810744220      -12.2385604207
O                18.8744411582       37.4101936569      -12.8260948532
C                18.1125902287       34.4295491526      -12.5574396225
C                18.4265770822       33.0346614677      -12.0024026286
C                18.3822906131       32.0445919148      -13.1662762842
C                19.7884792253       33.0036436210      -11.3140336936
H                16.2803467847       35.0737993171      -10.6975353275
H                19.1637876873       35.6098571246      -11.0750649456
H                17.1210349893       34.4230406240      -13.0166985766
H                18.8412305986       34.6832962375      -13.3284528211
H                17.6626690888       32.7631187982      -11.2650057484
H                18.6965106474       31.0593678202      -12.8365923225
H                17.3744534249       31.9769148634      -13.5687931147
H                19.0509334748       32.3781184240      -13.9534187041
H                20.0500829681       31.9955327985      -11.0034404804
H                20.5608897312       33.3827651901      -11.9765691447
H                19.7904649440       33.6072555325      -10.4080960402
N                16.6982798457       37.3857918481      -12.2415878654
C                16.4133407654       38.6988802790      -12.7889870441
C                15.9891459115       39.6422143487      -11.6641891748
O                15.1997850268       39.3002265936      -10.7919114270
C                15.3024689251       38.6320496704      -13.8503092470
C                15.8091972662       37.9717230738      -15.1326345149
C                14.6883061699       37.4336356452      -16.0169188602
O                13.5047363194       37.5091058297      -15.7308481792
N                15.1266353574       36.8582368797      -17.1490207331
H                15.9419225423       36.9058018437      -11.7694488577
H                17.3475047550       39.0526203513      -13.2375563600
H                14.4638755081       38.0628364117      -13.4449462430
H                14.9311319581       39.6380408529      -14.0542762149
H                16.4016684983       38.6809805830      -15.7108315241
H                16.4514623797       37.1259853093      -14.8707492853
H                16.1128371052       36.7247901164      -17.2944051382
H                14.4971230980       36.2960851379      -17.7089882396
N                22.1673447776       36.4384602870      -28.1351003128
C                21.2289525229       35.3515007652      -28.3144857557
C                21.0300473602       35.0439242491      -29.8028216812
O                20.8494735859       35.9251149205      -30.6385097767
C                19.8740813579       35.6915042737      -27.6851277004
C                18.8913632752       34.5242319259      -27.7385558610
C                17.6595933919       34.8515690356      -26.8999470211
C                16.5905944391       33.7668528380      -26.9593407454
N                15.6213543616       33.9699699636      -25.8578625096
H                21.8361569688       37.3446967956      -28.4454711235
H                21.6480616936       34.4730757154      -27.8158083518
H                20.0471846196       35.9529455080      -26.6385837306
H                19.4489048910       36.5679510109      -28.1808758325
H                18.6053572173       34.3049344793      -28.7699030144
H                19.3808121326       33.6329619445      -27.3359152747
H                17.9852571108       34.9651063306      -25.8621545820
H                17.2482906159       35.8020460817      -27.2405169500
H                16.0753413430       33.7881858224      -27.9224115571
H                17.0608114567       32.7911361004      -26.8284211898
H                14.7748350590       33.4082325012      -25.9714696511
H                16.1188846708       33.7183110322      -24.8927275426
H                15.3571182038       34.9568637220      -25.7882109755
N                23.0433875273       29.4201681093      -21.8787898656
C                21.7952119919       28.7035007505      -21.9829170862
C                21.6396755393       28.0873445342      -23.3750208380
O                22.0171224051       28.6926282007      -24.3740133688
C                20.5875791265       29.6432347199      -21.7861520518
C                20.3964418690       30.0097070083      -20.3452764083
C                20.9775160031       31.1482963179      -19.8041583768
C                19.6440883931       29.1921341610      -19.5139821490
C                20.8156672001       31.4562087394      -18.4676598533
C                19.4897203599       29.4770198627      -18.1715922750
C                20.0781954193       30.6166055359      -17.6385345307
O                19.9580966187       30.9426364400      -16.3232327473
H                23.1376686443       30.2547154929      -22.4493817861
H                21.7804345136       27.9178041201      -21.2219150497
H                20.7338399883       30.5423660410      -22.3935224054
H                19.6876269349       29.1484583476      -22.1629472247
H                21.5544076781       31.8038497988      -20.4419353698
H                19.1558799864       28.3263614302      -19.9357506071
H                21.2542498769       32.3564342864      -18.0678510259
H                18.8816260857       28.8242266709      -17.5633337349
H                19.4164601136       30.2830304772      -15.8637725151
N                18.2122553345       26.8065499786      -25.1132805886
C                16.8138207150       27.0134807743      -24.7716080790
C                16.7856699797       27.5851547745      -23.3453461132
O                17.5199284691       28.5223351093      -23.0570424262
C                16.0139191804       25.7304201700      -25.0176616270
C                16.1205749532       25.3952574707      -26.5063135831
O                16.1447519425       26.2879510433      -27.3452909484
N                16.1720943979       24.1005622017      -26.8069806341
H                18.6150324482       27.3070804211      -25.8979017201
H                16.4485044219       27.8027860677      -25.4366469585
H                16.4080759856       24.9170417373      -24.4091142564
H                14.9593087824       25.8987027074      -24.7966992412
H                16.2546954441       23.7945812453      -27.7801034735
H                16.1077447531       23.4013823738      -26.0866001989
N                15.8948168623       27.0639605360      -22.4852465260
C                15.7448085231       27.5748296984      -21.1404865362
C                16.7272003132       26.9807073628      -20.1184656927
O                16.6719614372       27.3364103563      -18.9489736089
C                14.3165977878       27.3335091897      -20.6427227457
C                13.2704349924       28.0846607963      -21.4651093464
C                11.8536778647       27.8094914798      -20.9516075852
C                10.8109285128       28.1988465707      -21.9969074883
N                 9.4379999819       28.0608729845      -21.4442402630
H                15.4747781426       26.1665919927      -22.6761795889
H                15.9630348625       28.6502960180      -21.1840703510
H                14.1297290671       26.2574316161      -20.6753230675
H                14.2791663941       27.6481985599      -19.5995010613
H                13.4853459850       29.1542608912      -21.4200451583
H                13.3589952522       27.7772740244      -22.5086301797
H                11.7721587899       26.7469120144      -20.7210800459
H                11.6965477005       28.3809742590      -20.0369748652
H                10.9663724806       29.2366773878      -22.2929326073
H                10.9157754232       27.5616033557      -22.8759431182
H                 8.7326146679       28.2240784425      -22.1739821395
H                 9.3046014324       27.1225726021      -21.0439482446
H                 9.3096339603       28.7867762022      -20.7034499276
N                17.8300276701       27.7723702223      -29.0465359789
C                18.4932701805       29.0330736622      -28.8277174677
C                19.7416384469       28.8280889698      -27.9647832787
O                19.8540215551       27.8734955635      -27.2074903504
C                17.5566366981       30.0638898905      -28.1684663756
O                17.2790029097       29.6480910840      -26.8435933610
C                16.2908843390       30.2314314250      -28.9994613848
H                17.3833536327       27.3165029713      -28.2571645371
H                18.7937692951       29.4259089751      -29.8025112457
H                18.1087077109       31.0182828333      -28.1369183666
H                16.4091089671       29.9887083313      -26.6017445694
H                15.6221274850       30.9525929097      -28.5369319945
H                16.5491968230       30.5816729154      -29.9948551028
H                15.7716201676       29.2799301376      -29.1059114306
N                22.3746778571       31.4993768977      -25.5595199628
C                22.3988209062       32.8268787149      -24.9678045296
C                23.4229023141       32.9031768767      -23.8428660283
O                23.6014928148       31.9499982885      -23.0827395789
C                21.0233884827       33.2114734549      -24.4088301643
C                20.8044910511       34.7645234663      -24.3256617872
O                21.8093366657       35.4921884163      -24.4371575759
O                19.6318302890       35.1328726813      -24.1612305571
H                22.4603855677       30.7018357740      -24.9393254086
H                22.6681234745       33.5431126081      -25.7514932307
H                20.2331392121       32.8128181669      -25.0501233559
H                20.8612618805       32.8068716563      -23.4042880910
N                24.4591860187       35.1919302205      -20.5333190711
C                23.7127389959       36.0301762104      -19.6119859027
C                24.6137234673       36.3858623277      -18.4253097026
O                25.1308880035       35.5212139231      -17.7286275444
C                22.4665068148       35.2697259048      -19.1089811295
C                21.5259832604       34.9161084558      -20.2678082865
C                21.7496463202       36.0558566780      -18.0123632587
C                20.9635667240       36.1170763528      -21.0141634164
H                24.6454859663       34.2459820601      -20.2109950749
H                23.4222645545       36.9313436132      -20.1565104738
H                22.8328888223       34.3248175391      -18.6884983335
H                22.0535911172       34.2850453158      -20.9917568182
H                20.6898566916       34.3236273275      -19.8873580734
H                20.8060701916       35.5729181779      -17.7740842727
H                22.3660493203       36.1077325209      -17.1183144767
H                21.5364914808       37.0689854600      -18.3408912315
H                20.2641065000       35.7789763461      -21.7780068474
H                20.4361131499       36.7927604692      -20.3477567193
H                21.7457627396       36.6608914964      -21.5402761807
N                -2.4723057644       35.0796427189      -12.3659490411
C                -1.7996250032       34.0973002869      -13.1965538914
C                -2.4872431268       32.7319920294      -13.1351249537
O                -3.2633086955       32.4226970080      -12.2359127325
C                -0.3402045532       33.9537347008      -12.7476311232
H                -3.0427862718       34.7388056560      -11.6030753512
H                -1.8192335373       34.4719316148      -14.2264765440
H                 0.1631038798       33.1593279369      -13.2923211577
H                 0.1750980468       34.8914642597      -12.9289823509
H                -0.3049371738       33.7237837243      -11.6851415331
H                17.1724336703       27.8798844594      -29.6515242600
H                20.4945388201       29.4846189795      -28.0107112054
H                21.5947883235       31.3772776187      -25.9917977457
H                23.9618918111       33.7354141569      -23.7129759535
H                24.0019442520       35.1117885120      -21.3043620487
H                24.7924311292       37.3442827263      -18.2028374322
H                -1.8612262539       35.6172093019      -11.9817563801
H                -2.3108700349       32.0509062597      -13.8457688215
H                 7.2232599014       30.2003238014      -10.5301288433
H                 8.7620675758       25.0281349774      -11.9272144343
H                15.5791921253       30.3509042744      -10.6711910435
H                17.5310486537       34.6176832124       -9.9387763668
H                16.3581567465       40.5707929952      -11.6245318810
H                22.3667771167       36.5220869125      -27.2614680506
H                21.0446802928       34.0970225902      -30.1240118516
H                23.1649330356       29.6899084710      -21.0288093796
H                21.2268989265       27.1823498088      -23.4779772111
H                18.7297627766       27.0384660796      -24.4144236866
H                17.4064545129       26.3075155000      -20.4107437249
