 341 
 
N                20.4177409550       31.8344781354       13.9013147140
C                20.0795718531       30.7886315263       12.9232822362
C                18.5527151684       30.6113589867       12.8837807443
O                17.8964705233       30.3483318558       13.8952970425
C                20.6984897575       29.4914741733       13.4317963186
C                20.3972462871       28.3064980092       12.5425853252
C                20.8705027751       28.3099803335       11.2492766141
C                19.7076521812       27.1937920631       13.0454446856
C                20.5095814046       27.2760716171       10.3976624313
C                19.3662641059       26.1449442427       12.1900961729
C                19.7447731641       26.2139783315       10.8660798864
H                20.2344926637       31.6002703086       14.8700379614
H                20.4540145216       31.0898913145       11.9452695853
H                21.7819579876       29.6245683408       13.5020024595
H                20.3136614003       29.2991050246       14.4332317405
H                21.4547911677       29.1398176868       10.8831333006
H                19.4320295366       27.1813085056       14.0883041486
H                20.8396358723       27.2794465152        9.3718849615
H                18.8245073276       25.2892288320       12.5634383022
H                19.4841680218       25.4137861919       10.1886633752
N                23.7893576355       15.3585727803       11.9760420689
C                23.7829067572       16.7988470510       12.1843701334
C                22.5021927459       17.2265929641       12.9427226198
O                22.4948797490       18.1040942182       13.7989029423
C                23.8946355671       17.5129510879       10.8268201731
C                23.9447443505       19.0351714583       11.0081260775
C                24.0344203651       19.7441143599        9.6702221581
O                24.7634393189       19.3075065786        8.7769348333
N                23.2694887700       20.8188782812        9.5055060928
H                23.6062469311       15.0048350246       11.0477997587
H                24.6422247860       17.0569848799       12.8142249888
H                24.8060983578       17.1779721075       10.3312548443
H                23.0399306744       17.2306986814       10.2084829463
H                23.0760254653       19.3871163650       11.5636311515
H                24.8451339719       19.2964688746       11.5684569333
H                22.6747060939       21.1781602421       10.2345080972
H                23.3191092028       21.3302437077        8.6257551506
N                22.7719763053       16.3232845008       16.5202834819
C                23.5960305407       17.2714807736       17.2579746914
C                22.8283792887       18.5981151237       17.5117501740
O                22.8913504247       19.1624419027       18.6031744274
C                24.9233961952       17.4791061935       16.5197844631
C                25.9019939621       18.3300844653       17.2855990563
C                27.2562392770       18.5486698850       16.5969682281
O                27.9671355159       19.5064270611       16.8719763602
N                27.6533051220       17.5949689998       15.7287162365
H                23.0652784935       16.0271803911       15.5983108373
H                23.7983909510       16.8483461829       18.2510095974
H                25.3293331575       16.4779551882       16.3655843209
H                24.7070010433       17.9262604885       15.5452788558
H                25.4932249815       19.3181793406       17.4990404237
H                26.1282139436       17.8649633090       18.2488855329
H                27.0278780201       16.8942544651       15.3763973090
H                28.5192344454       17.7399756439       15.2348220270
N                22.1082426349       19.0556884676       16.5120896015
C                21.2693590032       20.3006741673       16.6794096103
C                20.3688317374       20.2051962034       17.9004673476
O                20.2019718060       21.1506489358       18.6684405607
C                20.4363947920       20.4967126571       15.4159673872
C                19.6080793368       21.7321027859       15.4883792080
N                20.1036924801       22.9668310421       15.1024686218
C                18.3101493051       21.8785551724       15.9193519483
C                19.1348676324       23.8260737912       15.3295145131
N                18.0364135852       23.2271342455       15.7999094356
H                22.1204929375       18.6322810090       15.5888868326
H                21.9412886391       21.1512048160       16.8334614551
H                21.1174047859       20.5606818845       14.5652525112
H                19.7841608131       19.6284220931       15.2968565400
H                17.6144688718       21.1802367623       16.3213540604
H                19.2085142878       24.8783557696       15.1397250638
H                17.2002384122       23.6826060615       16.1366045289
N                12.4718784339       27.1035066071       12.9056588331
C                13.2754955040       27.0999124614       14.1029664889
C                13.9701455445       28.4576637461       14.2136000032
O                14.3935077004       29.0104843555       13.1864549132
C                14.4124446933       26.0419821259       13.9342498042
C                15.4601046970       26.1820232114       14.9765700459
N                15.3826219317       25.6061296677       16.2136028869
C                16.6108979935       26.9014565233       14.8891891641
C                16.4672636271       25.9829991038       16.8548668479
N                17.2412121098       26.7811459315       16.0817598064
H                12.9374513256       27.4221518622       12.0629907913
H                12.6526326390       26.8919481321       14.9738879115
H                13.9756796690       25.0464862710       13.9769246036
H                14.8719653787       26.2056852121       12.9604357963
H                17.0146745534       27.4944809983       14.0929885519
H                16.7280627064       25.7018375699       17.8547635256
H                18.1498311922       27.1697392964       16.3280128831
N                17.1334113756       30.2293494002       16.8604327960
C                17.9774081081       30.0670484250       18.0326433139
C                17.3028094875       30.7293460734       19.2145073220
O                16.6707035720       31.7676784216       19.0861933352
C                19.3291441188       30.7730658845       17.7877832580
O                19.9015068930       30.2932401250       16.5929142327
H                17.5881121985       30.5256055855       16.0029831931
H                18.1502883935       29.0031952658       18.2391192536
H                19.1701231588       31.8435860095       17.6365454908
H                19.9840829025       30.6010616287       18.6535216011
H                19.9032736799       29.3130108808       16.6070710898
N                24.3255606430       32.4939945895       22.6261441883
C                25.2881822839       31.4210984569       22.6089639008
C                24.8017412079       30.2099081524       21.7932434084
O                25.5924373948       29.5943834512       21.0617184841
C                25.7218518043       30.9918548645       24.0139520226
C                26.4570284176       32.1444862231       24.7033038282
C                27.7807291423       32.5304665274       24.0206729347
O                28.5172134929       31.6135756593       23.6093581038
O                28.0117261578       33.7459797685       23.7864772272
H                23.8783402826       32.7743700673       23.4976501003
H                26.1844731031       31.7825909370       22.0782676830
H                24.8553910884       30.6743915297       24.5994247548
H                26.3957441403       30.1392438300       23.9280502148
H                25.8176872884       33.0269197215       24.7489356386
H                26.6979624664       31.8500752896       25.7312264736
N                23.5088855197       29.9338289692       21.8655575347
C                23.0203110302       28.8232492283       21.0945674434
C                23.0874544318       29.1474677285       19.5931364670
O                23.3352521178       28.2560313630       18.7691796953
C                21.6551517307       28.3526175526       21.5435118916
C                21.8182823248       27.4361630950       22.7906973917
O                22.8856658173       26.8708024210       23.0034154677
N                20.7099112162       27.2591520037       23.4923188227
H                22.8887864950       30.3897723324       22.5259830728
H                23.7111674366       27.9747861755       21.2413390819
H                21.0088662156       29.1855876325       21.8120316860
H                21.1792635596       27.7658038590       20.7556224110
H                20.8289848221       26.9221098044       24.4377274907
H                19.8887006643       27.8671092550       23.3173733511
N                22.8184916254       30.4071339632       19.2480016552
C                22.8970391733       30.7731621670       17.8401258533
C                24.3035841710       30.5471763306       17.3389095433
O                24.5322702479       30.0393939412       16.2635621632
C                22.4969640381       32.2452470032       17.7185275824
H                22.5135371171       31.0992748832       19.9224745142
H                22.2278555790       30.1359474485       17.2488735496
H                22.6548545249       32.5863072736       16.6998661402
H                21.4580780020       32.3785625798       17.9911970665
H                23.1202657709       32.8403689735       18.3820416988
N                25.3391296371       30.8995139416       18.1317259426
C                26.6658369031       30.7117740462       17.6046462878
C                26.9700598631       29.2169111577       17.3409693034
O                27.6335684056       28.8595282611       16.3478050959
C                27.7172079235       31.2636173529       18.5956394265
C                27.5845039398       32.7749244775       18.7274460730
C                28.6258571396       33.2529050503       19.7645289505
C                28.4907729664       34.7278088173       20.0584344814
N                29.1705493039       35.0400743318       21.3448139465
H                25.1784589438       31.4243877213       18.9830796960
H                26.7606596001       31.2220657472       16.6376403940
H                27.5710894021       30.7792880986       19.5599655890
H                28.7076918660       31.0039707832       18.2216542491
H                27.7736039142       33.2513355140       17.7673000582
H                26.5859392119       33.0496959054       19.0634023890
H                28.4613146784       32.6920254241       20.6874278207
H                29.6231848865       33.0121134863       19.3988810569
H                28.9391432361       35.3277218887       19.2680103623
H                27.4378193032       34.9936987400       20.1532210603
H                29.0569690395       36.0620744787       21.5050717213
H                28.7450114946       34.5269384223       22.1556066522
H                30.1614492714       34.7870254654       21.3042292373
N                26.5202815316       28.3625833665       18.2911361801
C                26.7026136639       26.9347218806       18.1162232078
C                25.9331771992       26.4513740951       16.9078961262
O                26.4385031257       25.6301882228       16.1494815844
C                26.2572364431       26.0904478542       19.3160463982
C                27.1313481157       26.4315464280       20.5273631528
C                26.5899848545       25.8609937243       21.8375713183
C                27.5067706835       26.3293536417       22.9799053044
N                26.9136806060       26.0757994024       24.3179293961
H                26.0006382187       28.7027270280       19.0904611532
H                27.7660049537       26.7473206462       17.9179518333
H                25.2068979394       26.3031699069       19.5276538385
H                26.3489027177       25.0364585595       19.0569039205
H                28.1324236195       26.0414122972       20.3505172433
H                27.2014253495       27.5118170138       20.6246566142
H                25.5755739856       26.2284461718       22.0080750943
H                26.5555187726       24.7746819798       21.7830481607
H                28.4579360891       25.8020874018       22.9201142834
H                27.6944122799       27.3987732467       22.8685789746
H                27.5468704157       26.3900889851       25.0643560636
H                26.0114616673       26.5682705338       24.4386704925
H                26.7184186557       25.0720652666       24.4364145545
N                24.7122022606       26.9444468762       16.7382508705
C                23.9495069311       26.4405298545       15.5789566447
C                24.5090689748       26.9031944239       14.2350469665
O                24.5636771699       26.1737427033       13.2266269658
C                22.4748616807       26.9215094749       15.6929636849
C                21.8086894675       26.1971539829       16.8561041651
C                20.4200078871       26.6732372826       17.2044572778
O                19.8845094941       27.5631715416       16.5219193072
O                19.8587480631       26.1292436572       18.1873457934
H                24.2512387231       27.5449572420       17.4094042662
H                23.9795025273       25.3441538002       15.5895003092
H                22.4656676776       28.0002104540       15.8563270396
H                21.9473157388       26.7112785800       14.7605754426
H                21.7300000581       25.1257328576       16.6444688154
H                22.4069050862       26.2986426106       17.7643133274
N                24.9699394564       28.1509248733       14.1984250134
C                25.5846448596       28.6770743900       12.9975605543
C                26.8257960930       27.8258567108       12.6029488812
O                27.0703303504       27.5808391082       11.4346164318
C                25.9329970283       30.1723469901       13.1565172294
C                24.6437881424       31.0046093523       13.2544811904
C                26.8382812905       30.6702260553       12.0245769119
C                24.9249966593       32.4372047436       13.7690420232
H                24.8998653868       28.7648226854       15.0048940437
H                24.8786892983       28.5550431909       12.1623025066
H                26.4768122993       30.2670421357       14.1027575646
H                24.1674073366       31.0505175228       12.2766442836
H                23.9571770569       30.5236734309       13.9510330227
H                27.0544180507       31.7247061070       12.1506730836
H                27.7827086596       30.1343839409       12.0231841126
H                26.3586813480       30.5093244569       11.0622605600
H                23.9854561865       32.9773912024       13.8663724013
H                25.3904299439       32.3800431530       14.7480444885
H                25.5758668717       32.9785857143       13.0920585145
N                27.6194437747       27.4816067283       13.5956758935
C                28.8293177389       26.7269095789       13.3464767420
C                28.4982681289       25.2955896765       12.8895227834
O                29.1894144851       24.6843733119       12.0925430417
C                29.6177583781       26.6464872633       14.6476399345
H                27.4279372898       27.7537269053       14.5524625617
H                29.3985837808       27.2009149660       12.5390039234
H                30.5196340779       26.0628015209       14.4957549269
H                29.8824704811       27.6451461580       14.9817519137
H                29.0105224172       26.1607198226       15.4061590847
N                27.3810279192       24.7778264585       13.3688187892
C                26.9395756081       23.4318648145       13.0365639566
C                26.3927331169       23.3748005257       11.6361187979
O                26.7086998387       22.4339490546       10.9018304170
C                25.8370687272       22.9958553834       14.0019341974
C                25.2503025976       21.5943965718       13.7281791501
C                26.3202668634       20.5388899732       13.8489233103
C                24.1036767509       21.3039720988       14.6998486377
H                26.8742223848       25.2422721047       14.1121049310
H                27.8060182767       22.7633929350       13.0872741631
H                26.2454034703       23.0100589460       15.0149277602
H                25.0356519570       23.7356467840       13.9449826903
H                24.8490403548       21.5892985442       12.7069216437
H                25.8737766665       19.5470018856       13.8113614996
H                27.0371236282       20.6208691334       13.0349173608
H                26.8570200447       20.6405884559       14.7891273592
H                23.6549549986       20.3419813503       14.4670455892
H                24.4757742736       21.2792807880       15.7218557204
H                23.3368054918       22.0721798788       14.6314952878
N                25.5717321599       24.3551007315       11.2357949252
C                24.8817769142       24.2345229227        9.9320567570
C                25.6085868614       24.8644529040        8.7510820697
O                25.2858636002       24.5287274770        7.6138942950
C                23.5134133409       24.9417004520       10.0429820721
C                22.5399226064       24.1506493550       10.8788794990
C                22.4467361119       24.1234770522       12.2314046957
C                21.4344613145       23.3624878909       10.3797543691
N                21.3914924115       23.3432515675       12.6266331302
C                20.7531885281       22.8829687178       11.5121542517
C                20.9113744739       23.0930607158        9.1243315026
C                19.5776974434       22.1305957579       11.4165525389
C                19.7274697777       22.3842967491        9.0122500626
C                19.0879997619       21.8974136685       10.1537452682
H                25.2717762719       25.0842268344       11.8682215411
H                24.7595255363       23.1665387154        9.7241971550
H                23.6696092297       25.9224927602       10.4943013094
H                23.1001545730       25.0746642137        9.0444982570
H                23.0452913999       24.6265112121       12.9621240021
H                21.0642045563       23.2186245439       13.5835529584
H                21.3946370677       23.4857648818        8.2448966989
H                19.0760245719       21.7826503057       12.3060890129
H                19.2918432181       22.2059763591        8.0425278425
H                18.1758217124       21.3311691691       10.0432386612
N                26.5500027881       25.7872705732        8.9963714712
C                27.2318531249       26.4015629452        7.8763297097
C                28.7323171824       26.2439558258        7.9797127759
O                29.3278734326       26.2951881769        9.0588483278
C                26.9159011102       27.9239220583        7.9709092067
C                25.5156615130       28.2238632818        7.5141405627
C                25.3128827777       28.4147440199        6.1370856313
C                24.4580293788       28.3626203707        8.3850547612
C                24.0349551476       28.6385423639        5.6490099389
C                23.1751969892       28.6042873076        7.8904595059
C                22.9683224662       28.6918722115        6.5270949996
H                26.8478854320       26.0645934929        9.9206947308
H                26.8425284267       25.9767638081        6.9529578623
H                27.0670147497       28.2164643808        9.0110427560
H                27.6338386990       28.4712091876        7.3570653023
H                26.1511640664       28.3332131614        5.4666430155
H                24.6263683038       28.2739436259        9.4477618099
H                23.8770052783       28.7786282750        4.5904569108
H                22.3447552960       28.7090741086        8.5712087662
H                21.9713582327       28.8556495835        6.1474414705
O                31.2611352823       25.2365595053       10.6993366035
H                31.1402718520       25.5036258494       11.6095189035
H                30.5407255789       25.6609762937       10.2114101883
O                18.3336489367       27.3070469333       20.0176375184
H                18.8741204459       26.8587805020       19.3285075872
H                18.6128518338       26.9362740644       20.8567183898
O                28.4025591685       23.8690007280       16.8148893823
H                29.0435016273       24.3854806895       17.3313914523
H                27.7091295258       24.4862864568       16.5336591401
O                29.6992960432       30.4373123545       15.4455594219
H                29.5117347445       31.3920148851       15.3494340429
H                28.8712634442       29.9800463649       15.6460631530
O                23.9285288041       27.5822320835       25.9727119114
O                28.2319461183       29.3453039615       21.9449871153
H                28.4669994944       30.0937924989       22.5150682189
H                27.3759363111       29.5680462828       21.5527438277
O                28.4967451138       22.2906603233        8.7119112981
H                29.2150224978       22.8224312313        9.0624791330
H                27.8587252009       22.1964855707        9.4362414545
O                18.9547818894       23.5529029951       18.9150534349
H                19.2668526602       24.4378125328       18.6818335666
H                17.9961663292       23.6254985724       19.0633267904
O                30.3636907882       28.6869098649       10.3385387835
H                30.6646893805       29.0319071085       11.1876528085
H                29.5226808786       29.1161137557       10.1678946051
O                24.2806734849       21.8904892420       18.8432032072
H                24.1312507596       22.2190642036       19.7330631131
H                23.8402203503       21.0311495972       18.8075360148
O                27.0550205382       22.0667416968       18.6547403805
H                27.4573492414       22.5137454238       17.8971201248
H                26.1038318008       22.0119893865       18.4925111570
O                29.8994694667       22.4342719137       14.9669764965
H                30.7845670492       22.4446562933       15.3366852469
H                29.3295564275       22.8778721031       15.6194723865
O                30.9970743801       29.9218742425       13.1821167535
H                31.8729888133       29.6730119029       13.4833709917
H                30.4746894849       30.1155128516       13.9959715073
O                30.3303640937       25.2041952269       18.2260601285
H                30.9479774603       24.5281137543       18.5176857044
H                30.7070687919       26.0544432331       18.4722943423
H                21.2960235779       32.0234776698       13.8474741137
H                18.0602315127       30.7089699113       12.0189501504
H                24.5977502392       15.0273490153       12.1923571535
H                21.6298056663       16.7809623769       12.7418391635
H                22.7015171360       15.5582408738       16.9890518193
H                19.8877806241       19.3518562146       18.1014665765
H                12.1851984028       26.2678874135       12.7337427981
H                14.0797318593       28.8918557783       15.1077298141
H                16.7365433551       29.4455428665       16.6651302307
H                17.3691785784       30.3176199598       20.1233949670
H                24.7142658428       33.2510881774       22.3333685633
H                29.2771315764       26.0922155237        7.1549993973
