682
Properties=species:S:1:pos:R:3 pbc="F F F"
N      22.63100000      16.39400000      -8.78300000 
C      23.40100000      16.33000000      -7.56600000 
C      24.74500000      15.73400000      -7.88000000 
O      24.83800000      14.69200000      -8.54800000 
C      22.67600000      15.50300000      -6.50200000 
C      23.53300000      15.37400000      -5.25200000 
C      21.34500000      16.15400000      -6.17100000 
H      22.48300000      15.54200000      -9.27000000 
H      23.52700000      17.33200000      -7.20300000 
H      22.49900000      14.52100000      -6.92300000 
H      22.99900000      14.81700000      -4.49500000 
H      24.46500000      14.86900000      -5.45400000 
H      23.75900000      16.35400000      -4.85700000 
H      20.80200000      15.54200000      -5.47000000 
H      21.51200000      17.12300000      -5.71400000 
H      20.73800000      16.28300000      -7.05100000 
N      25.79800000      16.38300000      -7.39800000 
C      27.14100000      15.96300000      -7.65600000 
C      27.64400000      14.97900000      -6.63200000 
O      27.40300000      15.12100000      -5.42000000 
C      28.01400000      17.20300000      -7.54900000 
O      29.38000000      16.77900000      -7.41300000 
H      25.64700000      17.17300000      -6.78200000 
H      27.21000000      15.52900000      -8.63700000 
H      27.88800000      17.80200000      -8.43400000 
H      27.72800000      17.77000000      -6.68100000 
H      30.00300000      17.38800000      -7.79200000 
N      28.45500000      14.02900000      -7.06500000 
C      29.07300000      13.12600000      -6.13900000 
C      29.87700000      13.84100000      -5.09500000 
O      30.03100000      13.32200000      -3.97500000 
H      28.60900000      13.89800000      -8.04300000 
H      28.34000000      12.53500000      -5.62200000 
H      29.73300000      12.47600000      -6.68800000 
N      30.43800000      15.00400000      -5.40200000 
C      31.27600000      15.69200000      -4.44800000 
C      30.46300000      16.09100000      -3.24700000 
O      30.86700000      15.90700000      -2.08800000 
C      31.87200000      16.92800000      -5.11300000 
C      32.68800000      17.78700000      -4.16800000 
C      33.95000000      17.11900000      -3.70200000 
O      34.47400000      16.26100000      -4.50300000 
O      34.43800000      17.44400000      -2.59200000 
H      30.20500000      15.46200000      -6.26200000 
H      32.05200000      15.03700000      -4.09900000 
H      32.50500000      16.59400000      -5.91600000 
H      31.06700000      17.51200000      -5.53300000 
H      32.98000000      18.68900000      -4.68600000 
H      32.11700000      18.08700000      -3.30200000 
N      29.30300000      16.69600000      -3.49800000 
C      28.48600000      17.18300000      -2.42600000 
C      27.79700000      16.05000000      -1.72400000 
O      27.53900000      16.15400000      -0.51000000 
C      27.51200000      18.24700000      -2.90100000 
C      26.43100000      17.70500000      -3.80700000 
C      25.66400000      18.81500000      -4.47700000 
O      25.41300000      19.84600000      -3.79100000 
O      25.31400000      18.64200000      -5.69500000 
H      28.97200000      16.75500000      -4.43500000 
H      29.13300000      17.61100000      -1.68500000 
H      27.06700000      18.70500000      -2.03400000 
H      28.08900000      19.00500000      -3.40800000 
H      26.83200000      17.05700000      -4.56200000 
H      25.72500000      17.11800000      -3.23400000 
N      27.50300000      14.96100000      -2.41500000 
C      26.96200000      13.79600000      -1.76900000 
C      27.99100000      13.19600000      -0.84700000 
O      27.66500000      12.81300000       0.29700000 
C      26.52100000      12.79700000      -2.83500000 
C      25.86000000      11.59200000      -2.24300000 
C      24.56400000      11.68300000      -1.74600000 
C      26.53500000      10.38500000      -2.15800000 
C      23.95600000      10.58800000      -1.16100000 
C      25.91800000       9.27900000      -1.59800000 
C      24.63300000       9.38200000      -1.08900000 
H      27.64200000      14.94200000      -3.40500000 
H      26.12600000      14.06900000      -1.15200000 
H      25.83300000      13.32100000      -3.47900000 
H      27.37600000      12.51100000      -3.42300000 
H      24.03600000      12.61300000      -1.82400000 
H      27.53100000      10.31000000      -2.54700000 
H      22.96800000      10.67200000      -0.76500000 
H      26.42900000       8.34100000      -1.57400000 
H      24.15700000       8.52500000      -0.65800000 
N      29.23600000      13.09800000      -1.26800000 
C      30.27700000      12.62300000      -0.38200000 
C      30.32000000      13.49900000       0.84500000 
O      30.45300000      13.02300000       1.98700000 
C      31.61500000      12.68300000      -1.13000000 
C      32.81500000      12.69700000      -0.22300000 
C      33.39400000      11.52600000       0.24600000 
C      33.36700000      13.90700000       0.17600000 
C      34.50100000      11.56100000       1.07300000 
C      34.46400000      13.95800000       1.02200000 
C      35.04600000      12.77900000       1.45000000 
O      36.16900000      12.76100000       2.23200000 
H      29.47800000      13.33200000      -2.21000000 
H      30.06300000      11.62500000      -0.04100000 
H      31.65300000      11.83800000      -1.80100000 
H      31.61300000      13.58100000      -1.72400000 
H      32.97800000      10.57900000      -0.04300000 
H      32.93600000      14.82100000      -0.18200000 
H      34.95700000      10.65900000       1.42400000 
H      34.87100000      14.90100000       1.32500000 
H      36.47900000      13.62000000       2.56900000 
N      30.24500000      14.80500000       0.62800000 
C      30.37900000      15.74700000       1.70800000 
C      29.25500000      15.56700000       2.70300000 
O      29.47600000      15.49900000       3.92900000 
C      30.40400000      17.12700000       1.08500000 
C      30.74300000      18.21300000       2.07700000 
S      31.45800000      19.68400000       1.17500000 
C      30.14500000      19.95300000      -0.10800000 
H      30.24300000      15.15500000      -0.30700000 
H      31.29200000      15.56200000       2.24800000 
H      31.15800000      17.10100000       0.31100000 
H      29.45700000      17.31600000       0.61000000 
H      29.88300000      18.53500000       2.63900000 
H      31.52200000      17.90400000       2.74900000 
H      30.38400000      20.87800000      -0.59800000 
H      30.17400000      19.14800000      -0.81700000 
H      29.18200000      20.01400000       0.36500000 
N      28.02500000      15.45700000       2.20700000 
C      26.91500000      15.24700000       3.09900000 
C      27.09700000      13.94700000       3.83700000 
O      26.86100000      13.85400000       5.06100000 
C      25.61000000      15.25200000       2.32400000 
C      24.38600000      15.17600000       3.22600000 
C      24.30000000      16.39100000       4.13500000 
C      23.12500000      15.07100000       2.38900000 
H      27.86400000      15.54200000       1.22300000 
H      26.91300000      16.01500000       3.84900000 
H      25.56400000      16.16800000       1.75100000 
H      25.61200000      14.42700000       1.62300000 
H      24.46000000      14.28800000       3.84300000 
H      23.37100000      16.38200000       4.69000000 
H      25.11000000      16.42800000       4.84800000 
H      24.32700000      17.29800000       3.54000000 
H      22.25400000      14.99300000       3.02700000 
H      23.01200000      15.95200000       1.77200000 
H      23.15500000      14.20500000       1.74000000 
N      27.52600000      12.92100000       3.11400000 
C      27.77900000      11.63300000       3.71200000 
C      28.68500000      11.76200000       4.90000000 
O      28.45500000      11.09900000       5.92500000 
C      28.38600000      10.69700000       2.67900000 
O      27.38500000      10.41200000       1.69600000 
C      28.79700000       9.38400000       3.27500000 
H      27.70400000      13.04200000       2.14000000 
H      26.86700000      11.19700000       4.07600000 
H      29.22300000      11.19200000       2.21900000 
H      27.32400000      11.11500000       1.04700000 
H      29.12200000       8.72700000       2.48300000 
H      29.60900000       9.50600000       3.97600000 
H      27.96000000       8.93000000       3.78700000 
N      29.73700000      12.56600000       4.81200000 
C      30.64700000      12.66300000       5.92100000 
C      29.97000000      13.24700000       7.13900000 
O      30.23700000      12.82700000       8.27700000 
C      31.83700000      13.53500000       5.58900000 
C      32.65400000      13.05200000       4.40900000 
C      34.13300000      13.13800000       4.70800000 
N      34.51100000      11.92700000       5.42600000 
C      35.60500000      11.76000000       6.15000000 
N      36.40000000      12.77200000       6.44600000 
N      35.89400000      10.53400000       6.58200000 
H      29.92500000      13.05600000       3.96100000 
H      30.98000000      11.67600000       6.20400000 
H      31.49100000      14.54200000       5.41000000 
H      32.45900000      13.55500000       6.47500000 
H      32.40100000      12.03000000       4.15500000 
H      32.42800000      13.63700000       3.53300000 
H      34.71400000      13.20600000       3.81300000 
H      34.34000000      14.00200000       5.31800000 
H      33.96700000      11.11700000       5.23400000 
H      36.16700000      13.74400000       6.31100000 
H      37.21100000      12.59500000       6.99300000 
H      35.33200000       9.75700000       6.33000000 
H      36.67100000      10.37600000       7.17900000 
N      29.12000000      14.24700000       6.95000000 
C      28.44400000      14.84300000       8.07500000 
C      27.61700000      13.79000000       8.76500000 
O      27.54200000      13.76600000      10.01300000 
C      27.57100000      16.01100000       7.62700000 
C      28.42000000      17.17800000       7.13200000 
C      27.62300000      18.18300000       6.34200000 
N      26.58400000      18.77600000       7.16600000 
C      25.61300000      19.52900000       6.68100000 
N      25.46100000      19.68100000       5.37700000 
N      24.77000000      20.14100000       7.49700000 
H      28.87200000      14.52300000       6.02300000 
H      29.16600000      15.17800000       8.80000000 
H      26.92500000      15.66400000       6.83400000 
H      26.95900000      16.32400000       8.45500000 
H      28.89200000      17.66100000       7.98000000 
H      29.20600000      16.81200000       6.48700000 
H      28.27100000      18.95600000       5.95400000 
H      27.16800000      17.67400000       5.50400000 
H      26.63400000      18.64900000       8.17300000 
H      26.04200000      19.21000000       4.72300000 
H      24.75000000      20.27500000       5.01500000 
H      24.89000000      20.10700000       8.50500000 
H      23.99300000      20.63500000       7.12800000 
N      26.97200000      12.91400000       8.00700000 
C      26.19200000      11.85100000       8.59900000 
C      27.08000000      10.92100000       9.37700000 
O      26.69700000      10.48100000      10.48100000 
C      25.38300000      11.12600000       7.52200000 
C      24.77700000       9.82800000       8.03800000 
C      24.28900000      12.05400000       7.04100000 
H      27.04300000      12.97900000       7.01200000 
H      25.51500000      12.26700000       9.32300000 
H      26.05900000      10.90100000       6.70900000 
H      24.18900000       9.37700000       7.25200000 
H      25.53100000       9.12100000       8.34400000 
H      24.12600000      10.02600000       8.87800000 
H      23.71000000      11.58000000       6.25900000 
H      23.62000000      12.29200000       7.86100000 
H      24.69200000      12.97700000       6.65200000 
N      28.25800000      10.60400000       8.85900000 
C      29.17000000       9.75600000       9.58700000 
C      29.56000000      10.38600000      10.90600000 
O      29.63200000       9.70800000      11.95400000 
C      30.41800000       9.52600000       8.75600000 
C      31.48900000       8.72700000       9.48600000 
C      30.95900000       7.39100000       9.98900000 
C      32.67200000       8.52400000       8.55200000 
H      28.51200000      10.93400000       7.95100000 
H      28.68600000       8.82600000       9.82700000 
H      30.12300000       8.99600000       7.85900000 
H      30.81200000      10.48500000       8.45900000 
H      31.82800000       9.30200000      10.33500000 
H      31.76900000       6.79800000      10.39100000 
H      30.21900000       7.52400000      10.76100000 
H      30.50900000       6.83800000       9.17000000 
H      33.46600000       7.98500000       9.05200000 
H      32.36700000       7.95400000       7.68300000 
H      33.06600000       9.47600000       8.21400000 
N      29.85500000      11.67400000      10.90300000 
C      30.24300000      12.32600000      12.12200000 
C      29.09400000      12.30800000      13.10100000 
O      29.31700000      12.16000000      14.32300000 
C      30.69100000      13.74800000      11.81200000 
C      31.22800000      14.47000000      13.03700000 
C      32.50300000      13.88000000      13.55300000 
O      33.09000000      12.95300000      12.95600000 
N      32.99500000      14.38600000      14.67000000 
H      29.84000000      12.18500000      10.04300000 
H      31.03900000      11.78200000      12.59200000 
H      31.46200000      13.68600000      11.06100000 
H      29.86300000      14.30400000      11.40500000 
H      31.42700000      15.50400000      12.79000000 
H      30.50500000      14.47500000      13.83800000 
H      32.58600000      15.16700000      15.14400000 
H      33.84700000      14.01800000      15.02600000 
N      27.86400000      12.47000000      12.62600000 
C      26.72600000      12.45900000      13.51200000 
C      26.60700000      11.11000000      14.16000000 
O      26.38200000      11.00700000      15.38100000 
C      25.44900000      12.76700000      12.74700000 
C      25.28100000      14.23700000      12.40000000 
C      24.17000000      14.37500000      11.37500000 
C      24.96200000      15.05000000      13.64100000 
H      27.72500000      12.67300000      11.65800000 
H      26.87700000      13.16100000      14.31300000 
H      25.44900000      12.16500000      11.85000000 
H      24.60500000      12.45700000      13.34600000 
H      26.19900000      14.60500000      11.96300000 
H      23.98800000      15.41300000      11.14200000 
H      24.41800000      13.85600000      10.45900000 
H      23.25000000      13.95700000      11.76500000 
H      24.73400000      16.06900000      13.37500000 
H      24.10300000      14.63300000      14.15200000 
H      25.79400000      15.06600000      14.33200000 
N      26.73600000      10.04800000      13.37700000 
C      26.65200000       8.71800000      13.92800000 
C      27.69700000       8.55300000      15.00000000 
O      27.44000000       7.97900000      16.07200000 
C      26.83800000       7.68900000      12.82500000 
C      25.61100000       7.58200000      11.93800000 
C      25.86900000       6.85200000      10.64400000 
O      27.04500000       6.81500000      10.18700000 
O      24.87600000       6.34700000      10.02500000 
H      26.93400000      10.18000000      12.40600000 
H      25.70600000       8.57800000      14.42000000 
H      27.69200000       7.96600000      12.23000000 
H      27.04900000       6.72900000      13.27500000 
H      24.79800000       7.09500000      12.45400000 
H      25.27500000       8.56900000      11.65600000 
O      37.10200000      14.98300000       3.40600000 
H      37.93600000      15.37100000       3.16600000 
H      36.48500000      15.63700000       3.77900000 
O      36.10300000      15.50200000       6.62500000 
H      35.87600000      16.09800000       5.89400000 
H      35.67500000      15.75100000       7.43900000 
O      35.26400000      13.92200000      -3.40600000 
H      34.51100000      13.39400000      -3.16600000 
H      35.00500000      14.78300000      -3.77900000 
O      35.31400000      15.04700000      -6.62500000 
H      34.91100000      15.54100000      -5.89400000 
H      35.31200000      15.54100000      -7.43900000 
O      28.20000000      16.32800000      11.07200000 
H      27.61800000      17.01700000      10.72700000 
H      27.93100000      15.45500000      10.80000000 
N      32.29100000      15.37100000      -8.79100000 
C      32.87900000      14.00400000      -8.99400000 
C      31.80400000      12.96900000      -9.22100000 
O      31.53400000      12.13700000      -8.34400000 
H      32.36100000      15.65100000      -7.82900000 
H      32.77700000      16.05600000      -9.34500000 
H      31.31700000      15.41800000      -9.04600000 
H      33.52700000      14.05600000      -9.85200000 
H      33.44200000      13.76200000      -8.11700000 
N      31.20900000      13.00500000     -10.40800000 
C      30.28300000      11.98700000     -10.80700000 
C      28.84000000      12.23500000     -10.45200000 
O      28.45800000      13.19300000      -9.76900000 
H      31.55500000      13.59200000     -11.14300000 
H      30.35100000      11.87900000     -11.87900000 
H      30.56200000      11.04600000     -10.35600000 
N      25.14600000      10.76500000      -8.78300000 
C      24.70500000      10.13100000      -7.56600000 
C      23.51700000       9.26500000      -7.88000000 
O      22.56800000       9.70600000      -8.54800000 
C      24.35200000      11.17200000      -6.50200000 
C      23.81100000      10.49400000      -5.25200000 
C      25.58100000      11.99900000      -6.17100000 
H      24.48200000      11.32000000      -9.27000000 
H      25.50900000       9.52000000      -7.20300000 
H      23.59000000      11.81600000      -6.92300000 
H      23.59600000      11.23500000      -4.49500000 
H      22.90800000       9.94000000      -5.45400000 
H      24.54800000       9.80900000      -4.85700000 
H      25.32200000      12.77500000      -5.47000000 
H      26.33600000      11.37000000      -5.71400000 
H      25.99600000      12.46000000      -7.05100000 
N      22.07100000       4.83600000      -3.49800000 
C      22.90100000       5.30000000      -2.42600000 
C      22.26500000       6.46400000      -1.72400000 
O      22.48300000       6.63500000      -0.51000000 
C      24.31000000       5.61200000      -2.90100000 
C      24.38000000       6.81900000      -3.80700000 
C      25.72600000       6.92800000      -4.47700000 
O      26.74400000       6.63000000      -3.79100000 
O      25.75100000       7.31800000      -5.69500000 
H      22.28800000       5.09300000      -4.43500000 
H      22.94800000       4.52600000      -1.68500000 
H      24.92900000       5.76900000      -2.03400000 
H      24.67800000       4.73300000      -3.40800000 
H      23.61900000       6.79600000      -4.56200000 
H      24.22500000       7.72400000      -3.23400000 
N      21.46900000       7.26300000      -2.41500000 
C      20.73000000       8.31400000      -1.76900000 
C      19.69600000       7.72300000      -0.84700000 
O      19.52700000       8.19600000       0.29700000 
C      20.08500000       9.19500000      -2.83500000 
C      19.37300000      10.37000000      -2.24300000 
C      20.09900000      11.44700000      -1.74600000 
C      17.98900000      10.38900000      -2.15800000 
C      19.45400000      12.52100000      -1.16100000 
C      17.34100000      11.47600000      -1.59800000 
C      18.07200000      12.53800000      -1.08900000 
H      21.38300000       7.15200000      -3.40500000 
H      21.38500000       8.90100000      -1.15200000 
H      20.88400000       9.52900000      -3.47900000 
H      19.41000000       8.59800000      -3.42300000 
H      21.16900000      11.43900000      -1.82400000 
H      17.42600000       9.56400000      -2.54700000 
H      20.02100000      13.33500000      -0.76500000 
H      16.27200000      11.50300000      -1.57400000 
H      17.56800000      13.37800000      -0.65800000 
N      21.63700000       6.56300000       2.20700000 
C      22.01000000       7.62900000       3.09900000 
C      20.79300000       8.12100000       3.83700000 
O      20.83200000       8.37200000       5.06100000 
C      22.66700000       8.75600000       2.32400000 
C      23.21300000       9.85500000       3.22600000 
C      24.30900000       9.32200000       4.13500000 
C      23.75300000      10.99900000       2.38900000 
H      21.79100000       6.66000000       1.22300000 
H      22.67700000       7.24700000       3.84900000 
H      23.48300000       8.33900000       1.75100000 
H      21.95200000       9.16700000       1.62300000 
H      22.40700000      10.23400000       3.84300000 
H      24.76600000      10.13100000       4.69000000 
H      23.93600000       8.60100000       4.84800000 
H      25.08000000       8.84500000       3.54000000 
H      24.12000000      11.79300000       3.02700000 
H      24.57200000      10.65700000       1.77200000 
H      22.98800000      11.40600000       1.74000000 
N      20.04200000       6.22000000       6.95000000 
C      20.89600000       6.50700000       8.07500000 
C      20.39700000       7.75000000       8.76500000 
O      20.41400000       7.82600000      10.01300000 
C      22.34400000       6.67900000       7.62700000 
C      22.93000000       5.36000000       7.13200000 
C      24.19900000       5.54800000       6.34200000 
N      25.23200000       6.15100000       7.16600000 
C      26.36900000       6.61500000       6.68100000 
N      26.57700000       6.67100000       5.37700000 
N      27.32100000       7.04000000       7.49700000 
H      20.40500000       6.29600000       6.02300000 
H      20.82500000       5.71400000       8.80000000 
H      22.36600000       7.41200000       6.83400000 
H      22.92100000       7.05300000       8.45500000 
H      23.11200000       4.71000000       7.98000000 
H      22.22100000       4.86200000       6.48700000 
H      24.54400000       4.60000000       5.95400000 
H      23.98500000       6.19600000       5.50400000 
H      25.09700000       6.17100000       8.17300000 
H      25.87900000       6.40300000       4.72300000 
H      27.44700000       6.99000000       5.01500000 
H      27.23200000       6.95300000       8.50500000 
H      28.13800000       7.46500000       7.12800000 
N      19.96100000       8.74600000       8.00700000 
C      19.43100000       9.95300000       8.59900000 
C      18.18100000       9.64900000       9.37700000 
O      17.99200000      10.20100000      10.48100000 
C      19.20700000      11.01600000       7.52200000 
C      18.38600000      12.19000000       8.03800000 
C      20.55800000      11.50000000       7.04100000 
H      19.98200000       8.65200000       7.01200000 
H      20.12900000      10.33200000       9.32300000 
H      18.67500000      10.54300000       6.70900000 
H      18.29000000      12.92500000       7.25200000 
H      17.39700000      11.89100000       8.34400000 
H      18.88300000      12.65500000       8.87800000 
H      20.43700000      12.23800000       6.25900000 
H      21.09900000      11.96000000       7.86100000 
H      21.15600000      10.68900000       6.65200000 
N      19.13100000       8.19500000      12.62600000 
C      19.69100000       9.18700000      13.51200000 
C      18.58100000       9.96400000      14.16000000 
O      18.60500000      10.21100000      15.38100000 
C      20.59500000      10.13900000      12.74700000 
C      21.95300000       9.54900000      12.40000000 
C      22.62800000      10.44300000      11.37500000 
C      22.81700000       9.41900000      13.64100000 
H      19.37700000       8.21500000      11.65800000 
H      20.22300000       8.70500000      14.31300000 
H      20.07400000      10.43900000      11.85000000 
H      20.74900000      11.02500000      13.34600000 
H      21.81200000       8.57000000      11.96300000 
H      23.61800000      10.08100000      11.14200000 
H      22.05400000      10.48700000      10.45900000 
H      22.72600000      11.44800000      11.76500000 
H      23.81300000       9.10600000      13.37500000 
H      22.88400000      10.37100000      14.15200000 
H      22.41400000       8.69000000      14.33200000 
N      17.81900000      16.33700000      -2.41500000 
C      19.09800000      16.45200000      -1.76900000 
C      19.10300000      17.64300000      -0.84700000 
O      19.59800000      17.55300000       0.29700000 
C      20.18400000      16.57000000      -2.83500000 
C      21.55800000      16.59900000      -2.24300000 
C      22.12700000      15.43200000      -1.74600000 
C      22.26600000      17.78800000      -2.15800000 
C      23.38000000      15.45300000      -1.16100000 
C      23.53200000      17.80600000      -1.59800000 
C      24.08600000      16.64200000      -1.08900000 
H      17.76600000      16.46700000      -3.40500000 
H      19.28000000      15.59100000      -1.15200000 
H      20.07400000      15.71100000      -3.47900000 
H      20.00400000      17.45300000      -3.42300000 
H      21.58600000      14.50900000      -1.82400000 
H      21.83300000      18.68800000      -2.54700000 
H      23.80100000      14.55500000      -0.76500000 
H      24.08900000      18.71800000      -1.57400000 
H      25.06500000      16.65800000      -0.65800000 
N      17.12900000      16.54200000       2.20700000 
C      17.86500000      15.68600000       3.09900000 
C      18.90000000      16.49300000       3.83700000 
O      19.09800000      16.33500000       5.06100000 
C      18.51400000      14.55300000       2.32400000 
C      19.19100000      13.53100000       3.22600000 
C      18.18200000      12.84900000       4.13500000 
C      19.91300000      12.49100000       2.38900000 
H      17.13500000      16.36000000       1.22300000 
H      17.20100000      15.29900000       3.84900000 
H      17.74300000      14.05500000       1.75100000 
H      19.22700000      14.96700000       1.62300000 
H      19.92300000      14.03900000       3.84300000 
H      18.65400000      12.04900000       4.69000000 
H      17.74400000      13.53200000       4.84800000 
H      17.38300000      12.41900000       3.54000000 
H      20.41600000      11.77600000       3.02700000 
H      19.20700000      11.95300000       1.77200000 
H      20.64700000      12.95100000       1.74000000 
N      19.57400000      17.37800000       3.11400000 
C      20.56300000      18.24000000       3.71200000 
C      19.99900000      18.96100000       4.90000000 
O      20.68700000      19.09300000       5.92500000 
C      21.07000000      19.23400000       2.67900000 
O      21.81700000      18.51000000       1.69600000 
C      22.00200000      20.24700000       3.27500000 
H      19.38000000      17.47100000       2.14000000 
H      21.39600000      17.66900000       4.07600000 
H      20.22300000      19.71100000       2.21900000 
H      21.23900000      18.10600000       1.04700000 
H      22.40800000      20.85700000       2.48300000 
H      21.49000000      20.88900000       3.97600000 
H      22.81300000      19.74900000       3.78700000 
N      19.85700000      16.90200000       8.00700000 
C      21.16800000      16.75800000       8.59900000 
C      21.52900000      17.99200000       9.37700000 
O      22.10200000      17.88000000      10.48100000 
C      22.20000000      16.42000000       7.52200000 
C      23.62700000      16.54400000       8.03800000 
C      21.94400000      15.00800000       7.04100000 
H      19.76600000      16.93100000       7.01200000 
H      21.14600000      15.96300000       9.32300000 
H      22.05600000      17.11700000       6.70900000 
H      24.31200000      16.26000000       7.25200000 
H      23.86300000      17.55000000       8.34400000 
H      23.78100000      15.88100000       8.87800000 
H      22.64300000      14.74300000       6.25900000 
H      22.07200000      14.30900000       7.86100000 
H      20.94200000      14.89600000       6.65200000 
N      21.21400000      19.17000000       8.85900000 
C      21.49300000      20.38400000       9.58700000 
C      20.75200000      20.40700000      10.90600000 
O      21.30300000      20.80800000      11.95400000 
C      21.06900000      21.57900000       8.75600000 
C      21.22500000      22.90600000       9.48600000 
C      22.64600000      23.11600000       9.98900000 
C      20.80900000      24.03300000       8.55200000 
H      20.80200000      19.22500000       7.95100000 
H      22.54100000      20.42900000       9.82700000 
H      21.67500000      21.58900000       7.85900000 
H      20.04100000      21.44200000       8.45900000 
H      20.55700000      22.91300000      10.33500000 
H      22.75500000      24.11400000      10.39100000 
H      22.90200000      22.40800000      10.76100000 
H      23.35100000      23.00300000       9.17000000 
H      20.87900000      24.99000000       9.05200000 
H      21.45500000      24.05400000       7.68300000 
H      19.78800000      23.89800000       8.21400000 
N      22.45700000      18.13000000      13.37700000 
C      23.65100000      18.72300000      13.92800000 
C      23.27100000      19.71000000      15.00000000 
O      23.89700000      19.77400000      16.07200000 
C      24.44900000      19.39800000      12.82500000 
C      25.15600000      18.38900000      11.93800000 
C      25.65900000      18.97700000      10.64400000 
O      25.10300000      20.01400000      10.18700000 
O      26.59200000      18.37000000      10.02500000 
H      22.24400000      18.23600000      12.40600000 
H      24.24600000      17.97300000      14.42000000 
H      23.78200000      19.99800000      12.23000000 
H      25.17500000      20.06000000      13.27500000 
H      25.98400000      17.92800000      12.45400000 
H      24.46800000      17.60400000      11.65600000 
N      38.57800000      19.70400000       5.40200000 
C      37.56300000      19.32200000       4.44800000 
C      37.62400000      20.22600000       3.24700000 
O      37.58100000      19.78300000       2.08800000 
C      36.19400000      19.42400000       5.11300000 
C      35.04300000      19.14600000       4.16800000 
C      34.99000000      17.72000000       3.70200000 
O      35.47100000      16.83700000       4.50300000 
O      34.46500000      17.45900000       2.59200000 
H      38.29700000      20.13500000       6.26200000 
H      37.74200000      18.32200000       4.09900000 
H      36.16700000      18.70900000       5.91600000 
H      36.09100000      20.41300000       5.53300000 
H      34.11500000      19.34400000       4.68600000 
H      35.06800000      19.79100000       3.30200000 
N      40.82900000      19.79200000       1.26800000 
C      40.72000000      18.65200000       0.38200000 
C      39.94000000      19.05300000      -0.84500000 
O      40.28500000      18.70000000      -1.98700000 
C      39.99900000      17.52400000       1.13000000 
C      39.38700000      16.49100000       0.22300000 
C      40.11200000      15.40500000      -0.24600000 
C      38.06300000      16.61800000      -0.17600000 
C      39.52800000      14.46300000      -1.07300000 
C      37.47000000      15.69400000      -1.02200000 
C      38.20100000      14.60000000      -1.45000000 
O      37.65500000      13.61900000      -2.23200000 
H      40.50500000      19.69900000       2.21000000 
H      41.69200000      18.33900000       0.04100000 
H      40.71200000      17.06900000       1.80100000 
H      39.22300000      17.97400000       1.72400000 
H      41.14000000      15.29200000       0.04300000 
H      37.48800000      17.44900000       0.18200000 
H      40.08100000      13.61800000      -1.42400000 
H      36.45000000      15.81300000      -1.32500000 
H      36.75600000      13.77900000      -2.56900000 
N      38.84700000      19.77100000      -0.62800000 
C      37.96400000      20.12600000      -1.70800000 
C      38.68200000      21.01000000      -2.70300000 
O      38.63000000      20.78400000      -3.92900000 
C      36.75600000      20.79500000      -1.08500000 
C      35.64600000      21.04400000      -2.07700000 
S      34.01500000      21.16000000      -1.17500000 
C      34.43800000      22.43200000       0.10800000 
H      38.54400000      19.94800000       0.30700000 
H      37.66800000      19.24300000      -2.24800000 
H      36.40200000      20.12900000      -0.31100000 
H      37.06600000      21.70900000      -0.61000000 
H      35.79700000      21.95000000      -2.63900000 
H      35.52400000      20.21500000      -2.74900000 
H      33.51700000      22.68700000       0.59800000 
H      35.12100000      22.00400000       0.81700000 
H      34.86700000      23.29600000      -0.36500000 
N      41.04000000      19.09100000      -4.81200000 
C      40.50000000      18.35200000      -5.92100000 
C      40.33400000      19.23000000      -7.13900000 
O      40.56400000      18.78900000      -8.27700000 
C      39.15000000      17.75700000      -5.58900000 
C      39.16000000      16.80800000      -4.40900000 
C      38.34600000      15.57100000      -4.70800000 
N      39.20600000      14.63700000      -5.42600000 
C      38.80400000      13.60700000      -6.15000000 
N      37.52900000      13.42400000      -6.44600000 
N      39.72100000      12.74300000      -6.58200000 
H      40.52100000      19.17400000      -3.96100000 
H      41.18900000      17.57000000      -6.20400000 
H      38.45100000      18.56000000      -5.41000000 
H      38.82200000      17.22900000      -6.47500000 
H      40.17200000      16.51700000      -4.15500000 
H      38.76700000      17.29600000      -3.53300000 
H      37.99700000      15.10100000      -3.81300000 
H      37.49500000      15.82300000      -5.31800000 
H      40.17900000      14.70300000      -5.23400000 
H      36.80500000      14.11200000      -6.31100000 
H      37.27700000      12.63300000      -6.99300000 
H      40.67400000      12.84200000      -6.33000000 
H      39.46900000      11.99200000      -7.17900000 
N      31.31000000      15.19300000     -14.60100000 
C      30.12700000      14.40900000     -14.83000000 
C      30.43400000      13.30100000     -15.82100000 
O      31.62500000      12.99500000     -16.05900000 
C      29.00900000      15.28800000     -15.37000000 
C      28.68400000      16.46100000     -14.51600000 
C      29.17800000      17.71700000     -14.64000000 
C      27.76300000      16.47900000     -13.40200000 
N      28.61600000      18.53700000     -13.67400000 
C      27.75100000      17.79500000     -12.89700000 
C      26.97200000      15.50200000     -12.79800000 
C      26.97600000      18.14600000     -11.79700000 
C      26.19300000      15.85100000     -11.71400000 
C      26.20100000      17.16300000     -11.21900000 
O      29.42700000      12.75300000     -16.38300000 
H      31.53800000      15.87400000     -15.29400000 
H      29.82800000      13.95800000     -13.89700000 
H      29.30900000      15.63500000     -16.34800000 
H      28.14000000      14.66400000     -15.50500000 
H      29.87800000      18.09400000     -15.34900000 
H      28.82700000      19.49600000     -13.54900000 
H      26.98900000      14.50100000     -13.17200000 
H      26.98000000      19.14600000     -11.41100000 
H      25.58300000      15.11800000     -11.22700000 
H      25.59000000      17.40200000     -10.37100000 
H      21.80934583      16.71367247      -8.60218533 
H      28.62051863       8.90890272      14.85700844 
H      28.13111115      11.60679854     -10.77268601 
H      25.83428829      11.31601960      -8.60234386 
H      23.48469205       8.32164179      -7.54980085 
H      22.07172755       3.93608899      -3.51063473 
H      19.14075824       6.94827318      -1.14949785 
H      22.08867957       5.81602140       2.42610849 
H      19.93096588       8.25309905       3.34766676 
H      19.75019925       5.37029306       7.00338952 
H      17.50693397       9.00809241       9.00975016 
H      19.37363808       7.37372486      12.90282829 
H      17.81144236      10.28936042      13.61052603 
H      17.48528777      15.51278093      -2.27607889 
H      18.70900203      18.51098122      -1.14928165 
H      16.25633634      16.52536942       2.42650299 
H      19.07165068      19.33354301       4.86485827 
H      19.33722088      16.21086149       8.25631352 
H      19.80221116      20.09741715      10.95138306 
H      22.48223948      17.23820075      13.49556253 
H      22.50078385      20.33156299      14.85707856 
H      39.04171323      18.97541050       5.65523384 
H      37.70154333      21.21544996       3.36937568 
H      41.69335715      20.03035186       1.34594300 
H      39.21251982      21.79487081      -2.38280234 
H      41.81812143      18.71963884      -4.55389551 
H      40.03559889      20.17871043      -7.03457159 
H      31.22351866      15.64916106     -13.83000190 
