 306 
 
N                45.0108198134       16.7107062035        9.1828823166
C                44.1188715918       17.7405893260        9.6626017326
C                44.5722492564       19.1736806225        9.2999407068
O                43.8542950382       19.8279918356        8.5444435724
C                43.9746642037       17.4107039753       11.1422114122
C                43.5145344912       18.5686495199       11.9435516330
C                42.1738853956       18.6692358933       12.2800170774
C                44.4502773126       19.4916075682       12.4152509623
C                41.7620365623       19.6725869003       13.1400245675
C                44.0407017882       20.4664362764       13.3064821578
C                42.6947840881       20.5519468075       13.6794854448
H                45.4644531982       16.1504824665        9.8897158481
H                43.1532447720       17.6392544725        9.1436421861
H                43.3066613307       16.5563554958       11.2505300653
H                44.9632109948       17.1255554120       11.5088013858
H                41.4725046684       17.9450253784       11.8985393580
H                45.4949407289       19.3583505845       12.2004828844
H                40.7219326717       19.7474665634       13.4183177298
H                44.7857081219       21.0857109550       13.7801922668
H                42.3600116560       21.2380398735       14.4458558486
N                45.7099341553       19.6651125688        9.8317435108
C                46.1840708301       20.9008826072        9.2266211214
C                46.0722828137       20.8597062618        7.6887047956
O                45.7601397301       21.8686155737        7.0668533540
C                47.5873469616       21.4677049862        9.6344106830
C                48.3217705183       22.0622566746        8.4142301158
C                48.4727630906       20.4526570271       10.3061457060
C                49.7180625171       22.5128170426        8.7541271990
H                46.3743181747       19.0089276869       10.2262522200
H                45.4430949538       21.6683556888        9.4919693919
H                47.4215906377       22.2810792530       10.3450229172
H                48.3779598918       21.3234943435        7.6122113901
H                47.7465193608       22.9073788974        8.0405093782
H                49.3849386127       20.9156894278       10.6590850031
H                48.0021950294       19.9745577558       11.1627550952
H                48.7553906881       19.6686166177        9.5970391560
H                50.1004575164       23.1674338845        7.9712101157
H                49.7350714238       23.0745309552        9.6851432460
H                50.4058964819       21.6760840525        8.8351341687
N                46.3505522686       19.7273239666        7.0390323936
C                46.3327513152       19.7948942919        5.5902031848
C                44.9175984320       20.0999920266        5.0981145623
O                44.7702161982       20.8316477791        4.1171452309
C                46.8273356262       18.5032192158        4.9173797741
C                46.5293599957       18.4858936802        3.4272294803
C                47.5747642423       18.4669725276        2.5163104809
C                45.2140956903       18.4137280317        2.9676549399
C                47.2864099307       18.3867705988        1.1743892043
C                44.9269918961       18.3955046057        1.6315120916
C                45.9694620810       18.3683455411        0.7411274998
H                46.7209306671       18.8898252100        7.4688895696
H                46.9520392524       20.6412797674        5.2597217199
H                47.8943098953       18.3865155070        5.0978310768
H                46.3079149456       17.6664109228        5.3932530813
H                48.5960275209       18.4975401522        2.8646463194
H                44.4145061367       18.3039747017        3.6823646285
H                48.0878759181       18.3374586258        0.4506247718
H                43.9079999664       18.3694106585        1.2822126281
H                45.7719401863       18.3257417379       -0.3221065870
N                43.8972532964       19.5138790242        5.7635768719
C                42.5568589094       19.6781909684        5.2246363381
C                42.0691901963       21.1180895163        5.4242426523
O                41.5299235200       21.7418304786        4.5139639855
C                41.5096297158       18.7214074358        5.7582835090
C                40.2169707724       19.0295978821        5.0083743808
C                41.8934464596       17.2750390048        5.5116449443
H                44.0900029245       18.8088481634        6.4632813882
H                42.6195244076       19.5639019806        4.1297292876
H                41.3850449142       18.8925750570        6.8311708173
H                39.4593186679       18.2909422962        5.2622036392
H                39.8334211724       20.0087948889        5.2809532440
H                40.3746226015       19.0203967092        3.9350530214
H                41.1478099095       16.6114298337        5.9404539131
H                41.9448188792       17.0808782640        4.4408561463
H                42.8619123311       17.0312856987        5.9421215843
N                42.2319859185       21.6500060889        6.6484334476
C                41.8317715223       23.0396979562        6.7767358869
C                42.7052077584       23.9534845043        5.8784850662
O                42.0823207055       24.5486935002        4.9981235797
C                41.5367558564       23.3948728459        8.2229936227
C                42.7724307300       23.3676627306        9.1021841717
C                42.4430391814       23.2266169090       10.6027575954
C                43.7517390989       23.4550987000       11.3606798424
N                43.5616340012       23.4235426943       12.8257615256
H                42.7799163855       21.1785644847        7.3593533384
H                40.8655801797       23.1077099290        6.2507737671
H                41.0654130288       24.3773724480        8.2583830584
H                40.8100908576       22.6633576576        8.5847210678
H                43.4117570818       22.5324212480        8.8121797482
H                43.3344279138       24.2886500387        8.9430867570
H                41.7091519783       23.9813800841       10.8815762584
H                42.0406761836       22.2366896793       10.8074962991
H                44.4729304741       22.6830919612       11.0875984194
H                44.1608587822       24.4291966409       11.0806269703
H                44.4630310738       23.6010730892       13.2985709153
H                42.8973763029       24.1529813075       13.1249686163
H                43.2044673214       22.4943851563       13.1136216803
N                44.0387898118       24.0616828911        5.9682248187
C                44.7673061938       24.9056635251        4.9947670898
C                44.2161590871       24.8002692061        3.5468379496
O                44.1622418751       25.7686834152        2.7909902979
C                46.3148759688       24.6654414293        4.9485968763
C                46.9805364636       25.1053072490        6.2666301746
C                46.9757340410       25.4192587982        3.7811440859
C                48.5062552053       24.9936839005        6.2768283991
H                44.5938265590       23.4260076754        6.5304009541
H                44.5971449242       25.9528920441        5.2814653060
H                46.4671158090       23.5879712202        4.8081673539
H                46.7021385536       26.1400098425        6.4711691938
H                46.5741457980       24.4869441767        7.0690260870
H                48.0329839968       25.1879293514        3.7492286279
H                46.5393680321       25.1482390820        2.8241233675
H                46.8467638099       26.4898366628        3.9182405861
H                48.8664286563       25.1426362285        7.2908185968
H                48.8241741066       24.0122803242        5.9298207561
H                48.9620134951       25.7529368755        5.6505560959
N                43.8736866979       23.5830688643        3.1239634336
C                43.5978795369       23.3696643174        1.7352420862
C                42.1365752394       23.5574257581        1.3245515615
O                41.8407172431       23.4264173132        0.1387380741
C                44.0261508591       21.9571151448        1.3609784169
H                43.9822999325       22.7559036190        3.6983169802
H                44.1628504066       24.1132026038        1.1557667284
H                43.8580739409       21.7951950888        0.3012792744
H                45.0736819429       21.7995067867        1.6002819340
H                43.4340033943       21.2447428083        1.9304983053
N                41.2530110649       23.8256937214        2.2982565515
C                39.8181381373       23.9307607158        2.0482336810
C                39.4181970845       25.4220093282        1.9101054436
O                38.6984621691       25.8694992227        1.0206647078
C                38.9742896356       23.2101923775        3.1336848006
C                38.2976243513       21.8582765420        2.7719822828
O                38.2263994375       21.3379821800        1.6717392231
N                37.7349099238       21.2775581566        3.8512667391
H                41.5730096373       23.8666505213        3.2605645881
H                39.6197614346       23.4665879460        1.0718743452
H                39.6219142513       23.0225127767        3.9899983065
H                38.1590481540       23.8718297782        3.4390273585
H                37.2397228033       20.4084633623        3.7235451457
H                37.7362316747       21.7092929613        4.7577688915
N                39.9469518843       26.2223574461        2.8467547986
C                39.6928908299       27.6467899672        2.7448077992
C                40.2229393765       28.1156526487        1.3588079890
O                39.4666193626       28.5989975667        0.5251961786
C                40.2770770405       28.4241042932        3.9705083428
O                39.6562303053       28.0351038449        5.1908464112
C                40.1479815060       29.9238334949        3.7086338398
H                40.5002136558       25.8666671605        3.6156863509
H                38.6049301693       27.8022344835        2.7007373498
H                41.3323197844       28.1413148734        4.0760861215
H                38.9823105448       28.6864336652        5.4221181749
H                40.4409380897       30.4928495501        4.5861075393
H                40.7605850779       30.2168592363        2.8635571209
H                39.1113524538       30.1589463902        3.4636155571
N                41.5587711507       27.9586108044        1.2092642890
C                42.3901516505       28.4262379292        0.1018587592
C                42.3817203589       27.4794829183       -1.1111988549
O                43.3792230607       26.8644910706       -1.4347212480
C                43.8270448006       28.5732720097        0.5810994967
C                44.1337815401       29.9172916202        1.2272053075
C                45.2916112592       29.7075926358        2.1951445571
C                44.4527734764       30.9592836912        0.1514014132
H                42.0458775925       27.3875281590        1.8886259679
H                41.9588325067       29.3789358197       -0.2294381742
H                44.0257161170       27.7524870905        1.2748179429
H                44.4871735484       28.4143991066       -0.2707151065
H                43.2603676922       30.2453138113        1.8029684250
H                45.5428904707       30.6231264518        2.7262480831
H                45.0353107816       28.9440644265        2.9255552439
H                46.1736029733       29.3671844935        1.6561242347
H                44.7033641667       31.9073375586        0.6201605454
H                45.2964946659       30.6122297681       -0.4375368494
H                43.5852452043       31.0957327528       -0.4883389645
N                41.2428981229       27.4723595456       -1.8262533367
C                41.0197835236       26.6222715830       -2.9952289649
C                41.0076006705       27.3960899952       -4.3435010269
O                39.9442045580       27.8092703182       -4.8013315884
C                39.6481817603       25.9805394793       -2.9504486245
C                39.5304447368       24.9608401851       -1.8629044424
S                38.1281844664       23.9570573374       -2.3137739868
C                38.9604798302       22.7491906983       -3.4158924669
H                40.4232643384       27.9271134448       -1.4414683415
H                41.8196332746       25.8752730307       -3.0001773049
H                38.8907152618       26.7574960056       -2.8181320534
H                39.4554368796       25.5204740828       -3.9244094038
H                40.4101021193       24.3256289791       -1.7611836292
H                39.3013729274       25.4057451411       -0.8986077750
H                38.2524697829       21.9362622823       -3.5392651631
H                39.1559868850       23.2060379440       -4.3804331299
H                39.8604492042       22.4208044281       -2.9121241790
N                42.2160335944       27.5845370967       -4.9321967805
C                42.3641941654       28.2665006639       -6.2236249558
C                41.9427009584       27.2879019740       -7.3605025604
O                41.8592018354       26.0821666200       -7.1900719248
C                43.7369240387       28.9960076220       -6.2684118930
C                43.5450396535       30.3165704131       -5.5164782854
C                44.7745099004       31.0772119783       -5.0349844884
C                44.2865620950       31.9498138420       -3.8648230041
N                45.3411454163       32.7941071958       -3.2415898101
H                43.0144481843       27.0952120907       -4.5555233004
H                41.5634989812       29.0219019225       -6.2360266623
H                44.4851479845       28.3701011830       -5.7859954913
H                44.0298267168       29.1623962474       -7.3033019937
H                42.9264242514       30.9746780408       -6.1272426576
H                42.9519172581       30.0618611296       -4.6305424817
H                45.5425306952       30.3822067582       -4.6975455273
H                45.1777528065       31.6897981198       -5.8384855714
H                43.4955850375       32.6085047550       -4.2272841217
H                43.8740978157       31.3063273847       -3.0861307871
H                44.9446442404       33.3911639174       -2.5032804686
H                46.0982821974       32.2142964656       -2.8453728310
H                45.7605977740       33.4090458518       -3.9599359021
N                41.5843810331       27.8891051928       -8.5206841134
C                41.5650232164       27.1404591302       -9.7742634439
C                42.4265932741       28.0116322512      -10.7280588441
O                42.2243270078       29.2175334935      -10.7972654098
C                40.1354685488       26.8154180402      -10.2517795982
C                40.0316632544       25.6566605083      -11.2562937499
C                40.2399404130       24.3194767369      -10.5438271054
C                40.1007237353       23.1002762361      -11.4509915717
N                40.2517230820       21.8731204134      -10.6066259809
H                41.7020219268       28.8854807596       -8.6395653567
H                42.0873625340       26.1984244104       -9.5705390982
H                39.5622827241       26.5487425062       -9.3596959970
H                39.7052888676       27.7241389769      -10.6773448067
H                39.0335629112       25.6845292403      -11.6918736693
H                40.7627956241       25.7947467753      -12.0560348328
H                41.2367302022       24.3137699685      -10.0979319213
H                39.5202800215       24.2552840349       -9.7266913126
H                39.1111502932       23.0920427597      -11.9082876208
H                40.8571203992       23.1001100669      -12.2374026698
H                39.9447651147       21.0127069707      -11.1231308041
H                41.2223714663       21.7580700142      -10.2911646552
H                39.6532500857       21.9999837170       -9.7696234810
N                35.7630320114       21.3095412322      -11.2264938290
C                35.6321847620       21.7396733819       -9.8272158428
C                34.1780718445       21.4942401109       -9.4221303856
O                33.2989959595       22.0297050527      -10.0873291288
C                35.8899103411       23.2612044277       -9.6862346230
C                35.8426929247       23.7755455844       -8.2397892908
C                37.2062369367       23.9162887986       -7.4608166477
O                38.2601287026       23.9811119148       -8.1250271223
O                37.1290572260       23.9813276128       -6.2197764464
H                34.9110969512       21.3984271576      -11.7665415183
H                36.3418177494       21.1669923621       -9.2258631833
H                36.8727941458       23.4986512185      -10.0974485845
H                35.1274451862       23.7783269119      -10.2750390776
H                35.4531165970       24.7954317351       -8.2406761245
H                35.1542340213       23.1887830658       -7.6270770076
N                32.7003702040       21.7929992921       -5.9496083536
C                32.3327631932       22.8830765713       -5.0143793350
C                33.3156971985       23.1699100284       -3.8385517443
O                33.3814555999       24.3264662168       -3.4540806962
C                30.9597569752       22.6806619138       -4.3548920789
H                33.6975568863       21.6701562239       -6.0616191902
H                32.3134500981       23.8131661958       -5.5972907688
H                30.7699859985       23.5193564651       -3.6927527025
H                30.1912068447       22.6187776736       -5.1167684776
H                30.9663794725       21.7590432342       -3.7764706168
N                33.9162088968       22.1013931429       -3.2512997592
C                34.8731208818       22.0181540707       -2.1179932167
C                35.7195587494       20.6832348656       -2.2629231488
O                35.9839389693       20.2503608060       -3.3803745338
C                34.1867944995       22.1368260818       -0.7398593473
C                33.3908323650       23.4249015468       -0.4645902368
C                32.7373816551       23.2873502884        0.9140774691
C                34.2713105700       24.6746118451       -0.5331360464
H                33.7995859008       21.2172442074       -3.7332393046
H                35.5941319302       22.8400029439       -2.2263188253
H                33.5196240272       21.2814592290       -0.6135843260
H                34.9713658925       22.0850068979        0.0177755390
H                32.6032897567       23.5252343897       -1.2164050651
H                32.1056039606       24.1472999157        1.1182190065
H                32.1282617298       22.3890841712        0.9675116673
H                33.5047759494       23.2350848576        1.6841380795
H                33.7029862119       25.5460481522       -0.2203747391
H                35.1443432018       24.5741678139        0.1096714158
H                34.6026157882       24.8443637410       -1.5522954881
N                36.1165737282       20.0292527258       -1.1418336709
C                36.6851002529       18.6734981271       -1.1257412790
C                35.8474419350       17.8569416861       -0.0961945690
O                36.0810129617       17.9077437061        1.0919075335
C                38.1888041239       18.6448064896       -0.8223913842
C                38.9784197425       19.3383035277       -1.9556566570
C                40.2386654644       18.5768215653       -2.3779472517
C                40.9184661423       19.2684636860       -3.5595781876
N                42.0663305175       18.4523353835       -4.0551010514
H                36.0923236334       20.4908261632       -0.2458668757
H                36.5278610817       18.2805816240       -2.1369853842
H                38.3772085783       19.1251199744        0.1356359231
H                38.4781329124       17.5963005837       -0.7431110260
H                38.3291047150       19.4303101749       -2.8277267783
H                39.2409416451       20.3447456099       -1.6377911246
H                40.9216872580       18.5044080100       -1.5317504134
H                39.9452126514       17.5665655190       -2.6721018545
H                40.2059642993       19.3969534506       -4.3747414008
H                41.2903920785       20.2473715075       -3.2613618701
H                42.5645789670       18.9375852094       -4.8158163641
H                42.7294033792       18.2662031371       -3.2889670963
H                41.7310057915       17.5444965077       -4.4133374222
H                44.5531834526       16.1342904542        8.6648921186
H                43.1428312235       27.5876215598      -11.2823314606
H                36.3901427259       21.8080479585      -11.6366440401
H                33.9693989562       20.9121703033       -8.6362230343
H                32.3677900166       21.0131378899       -5.6476040287
H                35.0979779610       17.2745655228       -0.4110624080
