 376 
 
N               -31.4677420724       67.3578312282       17.7638449550
C               -32.7660666335       67.3988158609       17.1208860333
C               -33.0659403908       66.1968855561       16.2551168112
O               -34.1199857122       66.1355372846       15.6623388041
C               -32.9340843460       68.6118258868       16.2468485995
C               -33.2442748771       69.8175786612       17.1131865436
C               -32.2988295640       69.9702776729       18.3209348110
C               -33.2115170248       71.0707471489       16.2408983617
H               -30.7731639674       68.0495650143       17.5261435632
H               -33.5468835139       67.3958940470       17.8946840215
H               -32.0234626394       68.7649816277       15.6601861120
H               -33.7536042239       68.4379724887       15.5514489456
H               -34.2561733095       69.7074310804       17.5129864189
H               -32.5456154429       70.9099848240       18.8121576113
H               -32.4293370671       69.1805063575       19.0516090995
H               -31.2554612634       70.0240607188       18.0186108554
H               -33.6809792226       71.9006723043       16.7606631528
H               -32.1800386471       71.3418954626       16.0241984880
H               -33.7399790870       70.9097842603       15.3067038213
N               -32.1066323061       65.2655946807       16.1678183555
C               -32.3957843305       63.8924578914       15.8820014660
C               -32.6717575524       63.0996594997       17.1753154426
O               -33.7936350572       62.6201815081       17.3058924954
C               -31.2966692903       63.2323743093       15.0616121876
C               -31.7205172212       61.8042487127       14.6914185470
C               -33.0075258061       61.7800929038       13.8632838818
O               -34.0740643478       61.3651146651       14.2882406778
N               -32.8705836661       62.2820840348       12.6193067743
H               -31.2234577248       65.4463156450       16.6180811412
H               -33.3387279983       63.8726290653       15.3237471745
H               -31.1356992678       63.8274998166       14.1616677694
H               -30.3708787856       63.2108560468       15.6388729269
H               -30.9336737304       61.3247465749       14.1090125437
H               -31.8960384753       61.2144185804       15.5911511620
H               -31.9554236103       62.4626368685       12.2412339377
H               -33.6416165704       62.2104426254       11.9749989591
N               -31.7082355084       62.9627183012       18.1092820116
C               -31.8808880531       62.0972362557       19.2920500461
C               -33.1642141939       62.4466750600       20.1285208690
O               -33.5641361998       61.7079147143       21.0206762638
C               -30.5365459251       61.8586359073       20.0600752880
C               -30.2887671873       62.5832037932       21.4027219954
C               -29.2057010502       61.9589105354       22.3014558627
O               -29.0082026117       60.7611537012       22.4295254352
N               -28.4153076460       62.8498622943       22.9484374661
H               -30.7949155932       63.3741720355       17.9529922533
H               -32.1789053659       61.1132247662       18.8932341299
H               -30.4861918258       60.7909897926       20.2812244022
H               -29.7270333483       62.0935660638       19.3692545893
H               -30.0432974620       63.6310300383       21.2496696638
H               -31.2086930608       62.5254199388       21.9930531371
H               -28.7355307204       63.7765016392       23.2079239649
H               -27.7963581676       62.4422320255       23.6351492491
N               -33.8463918968       63.5166997235       19.6891410833
C               -35.0705301986       63.9777804821       20.2741971743
C               -36.2647594324       63.8037811969       19.3671778174
O               -37.3407539196       63.4995430213       19.8661938377
C               -34.8842119601       65.4126076507       20.7421325921
C               -33.9660912306       65.4259770256       21.9582765949
C               -34.4620269322       65.8470486192       23.1899108194
C               -32.6266015359       65.0146510977       21.9559197742
C               -33.7024575914       65.8616892747       24.3510779641
C               -31.8344378947       65.0702889207       23.1011836416
C               -32.3576809841       65.5194643663       24.3136493395
O               -31.6272027287       65.6570553518       25.4509601295
H               -33.3398556466       64.2083528788       19.1502253254
H               -35.2835907430       63.3387367526       21.1434280506
H               -34.4499701328       65.9989282934       19.9314415883
H               -35.8488998979       65.8383494465       21.0118716692
H               -35.5009080809       66.1375918232       23.2658100370
H               -32.1710374376       64.7022049193       21.0343278726
H               -34.1689507417       66.0687479430       25.2978979749
H               -30.7891686158       64.8049584762       23.0789394136
H               -30.6810387119       65.5097684405       25.2418678626
N               -36.1657443382       63.9668164175       18.0480644313
C               -37.2569567302       63.4429614406       17.2279970103
C               -37.3905172870       61.9312848921       17.5120124902
O               -38.4745382805       61.4928155619       17.9169780580
C               -37.0377493447       63.8488762976       15.7660554790
C               -38.3277608244       64.0296023812       14.9475942413
C               -38.0199080523       64.2546583654       13.4379918277
N               -39.2057417674       64.6670481634       12.6406309430
C               -39.3842849319       64.6887877106       11.3088219313
N               -38.4827726604       64.1668269460       10.4789455185
N               -40.4748514627       65.2660297247       10.7787741066
H               -35.2581140409       63.9961322013       17.6035068554
H               -38.1895877614       63.8717297198       17.5995762352
H               -36.4944415635       64.7973845866       15.7855391766
H               -36.3952332739       63.1063617693       15.2857863829
H               -38.9517564932       63.1417659497       15.0590103650
H               -38.8799074538       64.8849955281       15.3360885144
H               -37.2567134144       65.0360036397       13.3611320463
H               -37.6207091525       63.3237683771       13.0332058454
H               -39.9428980832       65.0750734825       13.2003513225
H               -37.6194473399       63.7878166388       10.8332332680
H               -38.6106701526       64.2078815915        9.4819291335
H               -41.2347365428       65.5745456823       11.3621299231
H               -40.6461979062       65.1904514228        9.7892941965
N               -36.2921822236       61.1811944388       17.3743903054
C               -36.1835997205       59.7299432144       17.5507863994
C               -36.1054658568       59.3539689226       19.0461953729
O               -35.3401934910       58.5258215905       19.5042174267
C               -35.0111090280       59.0620278684       16.8095449833
C               -35.3163635760       58.3054836791       15.5022148517
C               -34.8232382401       56.7967202947       15.3821487368
O               -34.7847382912       56.3407297278       14.2172279257
O               -34.5573515208       56.1701309581       16.4249863449
H               -35.4245948579       61.6401282224       17.1103789692
H               -37.1353069041       59.2913650752       17.2112508406
H               -34.2490663479       59.8198385171       16.6207660319
H               -34.5871258761       58.3278793974       17.5035473178
H               -36.3955230730       58.2335969303       15.3436495833
H               -34.8960710351       58.8372156529       14.6482425667
N               -37.0494078759       60.0128672589       19.7378311449
C               -37.5673531080       59.5655359361       21.0101912497
C               -38.8725769036       60.2769688579       21.3772665071
O               -39.7066788396       59.6134582999       21.9820457875
C               -36.4859508529       59.5322342236       22.0937515493
C               -37.0286715304       59.2354435601       23.4930648334
S               -38.1211195236       57.7413759991       23.7891994327
C               -37.5500607166       57.2799772194       25.4785812648
H               -37.6887149881       60.5890683007       19.1963715106
H               -37.8899565528       58.5148115164       20.9138207579
H               -35.7421933990       58.7958676420       21.7857271473
H               -35.9866522794       60.5045168570       22.1305356097
H               -36.1828924678       59.1137223025       24.1666011222
H               -37.6311910790       60.0882488377       23.7956370209
H               -38.2797028154       56.5540300523       25.8189039201
H               -36.5618891654       56.8363541965       25.4188097641
H               -37.5475367848       58.1630416337       26.1064251604
N               -39.2067474262       61.4853095146       20.9144384638
C               -40.6268827104       61.7473794376       20.9799377498
C               -41.3482161727       60.5115964750       20.4801211386
O               -42.2012932457       59.8519387191       21.0522163560
C               -41.0988565059       62.8167281511       20.0221160819
C               -40.8782394619       64.2087884022       20.5579972738
C               -41.7299987269       65.1309754347       19.7014153470
C               -41.2486712399       64.3482856470       22.0254045250
H               -38.5717923765       62.1692691948       20.5174355704
H               -40.9285849293       61.9288971023       22.0136831029
H               -40.5809830136       62.7198584558       19.0691337205
H               -42.1703929183       62.6704817343       19.8557083002
H               -39.8185343015       64.4665558089       20.4548193504
H               -41.4951366448       66.1691153480       19.9212864929
H               -41.5666876068       64.9458902477       18.6452971679
H               -42.7739677149       64.9568540977       19.9370385784
H               -41.2488182035       65.4012684395       22.3035198892
H               -42.2428631381       63.9568740235       22.2218785874
H               -40.5330925665       63.8435873687       22.6666169636
N               -41.0216236542       60.2633950005       19.2124496310
C               -41.7878223410       59.3147444223       18.4633916056
C               -41.4612987232       57.8620498853       18.8243610962
O               -42.3153707937       56.9973165442       18.6711540303
C               -41.6379635832       59.7329469575       16.9957218662
C               -42.4268612676       61.0391100943       16.8140148225
C               -42.0487505013       58.6254376432       16.0375290189
C               -42.1479409312       61.6599447102       15.4546465211
H               -40.2555183257       60.7433958733       18.7597103197
H               -42.8437226151       59.4246970989       18.7485108658
H               -40.5728719833       59.9412763507       16.8277135060
H               -43.4936246949       60.8394909088       16.9254519216
H               -42.1452006540       61.7403606108       17.5959628513
H               -41.8587195487       58.9134404173       15.0088343442
H               -41.4829324909       57.7191752733       16.2439822000
H               -43.1043245375       58.3902102878       16.1528811887
H               -42.6256547610       62.6324983413       15.3805817445
H               -41.0752477027       61.7781470544       15.3186838658
H               -42.5311402306       61.0298913165       14.6573627951
N               -40.2508404972       57.5773611999       19.3512010185
C               -39.8935839747       56.2237633003       19.7764897453
C               -40.7194376098       55.7505411485       21.0076191629
O               -40.9455573246       54.5571863425       21.1827489709
C               -38.3961328187       56.0369667863       20.0244927777
H               -39.6034308678       58.3236118284       19.5528584329
H               -40.2072012353       55.5503020376       18.9675091769
H               -38.1944297466       54.9770106462       20.1423847560
H               -37.8037471979       56.4128686663       19.1933244016
H               -38.0952374101       56.5347849839       20.9441044078
N               -41.2105302678       56.7324749086       21.7836393844
C               -42.2226948025       56.4985027681       22.7910831172
C               -43.5548756885       57.1709601214       22.4413995036
O               -44.3494202239       57.4469312774       23.3228408327
C               -41.7749120022       56.8124737386       24.2082390678
C               -41.1961253179       55.5643292635       24.9219512425
O               -41.6054282933       54.4230152450       24.6654313918
O               -40.3415773398       55.8579862851       25.8058542234
H               -40.8833724323       57.6863910563       21.6858802341
H               -42.4354943573       55.4140560604       22.7609601743
H               -41.0134477295       57.5907596678       24.2137235065
H               -42.6543839342       57.1455152140       24.7616656289
N               -43.8050812133       57.3258749470       21.1303146090
C               -45.1181931106       57.5377777183       20.5524179025
C               -45.6942383070       58.9284070974       20.8448294526
O               -46.9056757078       59.1303210694       20.8631968396
H               -43.0951116194       57.0238901559       20.4794042765
H               -45.0355238313       57.3938070296       19.4752247816
H               -45.8382657887       56.8136890082       20.9496145251
N               -44.7946746251       59.8706491501       21.1012560362
C               -45.1498573842       61.1104152536       21.7381580200
C               -45.2251871063       62.2556695871       20.7392087122
O               -44.5130154632       62.3787584536       19.7521339755
C               -44.1289460295       61.4345653388       22.8478191675
C               -44.0345329575       60.3171834680       23.8944168011
C               -44.4676598615       62.7305822611       23.5588974711
C               -42.6112642011       60.0503671079       24.3523923920
H               -43.8064143109       59.6493724354       21.0631698454
H               -46.1501781102       60.9648589443       22.1634647254
H               -43.1604002701       61.5356853032       22.3545444617
H               -44.6327106326       60.6113815614       24.7597887250
H               -44.4618730204       59.4009594872       23.5031575429
H               -43.7245059173       62.8940435544       24.3370156465
H               -44.4329847946       63.5898878603       22.9022626395
H               -45.4435881379       62.6658176677       24.0299797601
H               -42.6059598909       59.3323730124       25.1627726290
H               -42.0110601618       59.6661576477       23.5329657374
H               -42.1460959228       60.9708676567       24.7029595553
N               -46.1939529352       63.1161247304       21.0972707562
C               -46.3361997851       64.4176700618       20.5141575206
C               -45.3753207782       65.4298127428       21.1451634501
O               -45.0455435053       65.4055420521       22.3207982090
C               -47.7669407845       64.9061666872       20.7546340946
C               -47.9765080765       66.3746414394       20.2641081064
O               -47.9215870859       66.5984252749       19.0399128073
O               -48.1793162345       67.2250752782       21.1565163892
H               -46.5935378726       63.0250844814       22.0190419518
H               -46.1463288657       64.3367436365       19.4420554755
H               -48.4635470839       64.2565141883       20.2223009347
H               -47.9905044050       64.8971159985       21.8218274827
N               -44.9427868516       66.4047143424       20.3434871837
C               -44.4317748176       67.6316869219       20.9087177090
C               -45.4907723955       68.6920381195       21.3209984526
O               -45.4155433038       69.1018204996       22.4688363944
C               -43.5209540503       68.2144376336       19.8243727272
C               -43.8675317056       67.4666964021       18.5227199746
C               -44.8237300442       66.3269599542       18.8993692067
H               -43.8930720841       67.3935771684       21.8320137709
H               -43.7018535958       69.2809692803       19.7033646274
H               -42.4745361178       68.0793613649       20.0883431437
H               -44.3553937783       68.1411698625       17.8214815530
H               -42.9690955972       67.0879957126       18.0424864525
H               -45.8026584776       66.4486373794       18.4237929187
H               -44.4225969130       65.3518201886       18.6137507225
N               -46.7025221304       69.0165019086       24.6044744942
C               -45.8812220978       68.3773115489       25.6167026320
C               -44.8732968452       69.3726527335       26.1707057886
O               -44.6775105509       69.5366808509       27.3772986114
C               -45.3163801001       67.0705741406       25.0392894424
C               -46.1771181722       65.8566493291       25.4661833804
C               -46.9336136686       65.1727467035       24.3328430564
C               -45.3153117771       64.8401094436       26.2092885154
H               -47.1471450491       68.3620376339       23.9785259600
H               -46.5367797789       68.1373340795       26.4715603445
H               -45.2715673324       67.1397999223       23.9561523886
H               -44.2971483944       66.9311327475       25.4041907630
H               -46.9448469693       66.2153932476       26.1652278588
H               -47.6256174775       64.4526306439       24.7622648537
H               -47.5291255362       65.8967231775       23.7804138900
H               -46.2462016200       64.6873068415       23.6654424425
H               -45.9137886408       63.9925419540       26.5300818076
H               -44.5169168024       64.4895408267       25.5655417790
H               -44.8740624493       65.3012206200       27.0907499107
N               -44.2344038678       70.0416270646       25.2357339052
C               -43.4090448035       71.2092759503       25.4652578035
C               -43.6245035459       71.8241406239       26.8811933983
O               -42.7411348732       71.8688223787       27.7275979280
C               -43.6918548067       72.2146909504       24.3203713781
C               -43.9603895779       71.5851979384       22.9266485201
C               -43.9987187978       72.6793338015       21.8530021402
C               -42.9201619593       70.5432705740       22.5144679317
H               -44.5284969522       69.8866376658       24.2816210108
H               -42.3555596476       70.8951167409       25.4260967622
H               -44.5591077347       72.8284096031       24.5661140627
H               -42.8307658349       72.8804578335       24.2372254921
H               -44.9537838027       71.1336470627       22.9262059892
H               -44.2302052505       72.2403759227       20.8856193637
H               -44.7716505245       73.4074711431       22.0793752533
H               -43.0377369419       73.1847506309       21.7810532975
H               -43.0582730928       70.2767327511       21.4731543683
H               -41.9212188431       70.9676956871       22.6133854480
H               -42.9615166963       69.6305146240       23.0991664379
N               -46.5461764068       58.4317282726       31.4874747037
C               -46.4206430486       59.6320468249       30.7139412702
C               -45.7102591077       60.7232522900       31.5288522146
O               -44.6350095187       61.2046091266       31.1946045508
C               -47.8050526848       60.0763360730       30.2912822255
C               -47.8010633643       61.5264108162       29.8093616562
C               -48.8110367901       61.7600603422       28.6864796249
N               -48.3878536738       61.0921440538       27.4481847286
C               -48.6234015714       61.4636801172       26.1833648070
N               -49.3276081087       62.5579025708       25.8742265929
N               -48.1075644158       60.7204188755       25.1871538358
H               -47.4737772918       58.1775778249       31.7942587593
H               -45.7825149280       59.4292316731       29.8423492198
H               -48.1614345919       59.3891525304       29.5232544601
H               -48.4755368018       59.9708730212       31.1457746911
H               -48.0372685050       62.2013728303       30.6265334391
H               -46.8086555345       61.7903527647       29.4371841718
H               -49.7898507799       61.3745316422       28.9843310302
H               -48.8890952426       62.8310997252       28.4952067363
H               -47.9065792777       60.2125271825       27.5799767915
H               -49.6703065909       63.1960908024       26.5725398168
H               -49.4410533365       62.8452924950       24.9163889052
H               -47.6514790520       59.8408711386       25.3708188366
H               -48.3722732168       60.9022301767       24.2331336965
N               -42.0716189111       60.4380253220       31.9298003130
C               -41.2764805954       60.8876867591       30.8020850584
C               -40.9769633125       62.3764459353       30.9986356186
O               -39.8188525254       62.7803462514       31.0217293014
C               -41.9428958155       60.5894385521       29.4599119048
C               -41.3644915897       59.3337627665       28.7971333975
C               -41.5818627409       58.0947626648       29.6536514088
C               -40.7227538357       56.9043776224       29.2336270961
N               -41.2967570674       56.0599375552       28.1495620961
H               -42.9337389226       59.9371259686       31.7519287819
H               -40.2983761780       60.3845719162       30.8400732954
H               -43.0175005383       60.4849512049       29.6111358548
H               -41.7792624465       61.4337995956       28.7885286860
H               -41.8082632112       59.2064991410       27.8107290293
H               -40.2915020728       59.4867400312       28.6771261321
H               -41.3004205400       58.3410175039       30.6756510178
H               -42.6370681171       57.8124627854       29.6656780554
H               -39.7397636514       57.2579825155       28.9250506217
H               -40.5910803266       56.2642559810       30.1071117150
H               -41.0312562975       55.0793903254       28.2860435966
H               -42.3213324852       56.0923440158       28.1409353127
H               -40.9139611221       56.2440935027       27.1547430256
N               -37.2017860724       64.0136036012       30.5092940615
C               -36.8577750609       64.8492935779       29.3959120412
C               -36.4244475301       66.1899718930       29.9825216221
O               -35.3271402842       66.6462386887       29.6746340212
C               -38.0172833672       64.9377665054       28.4183820106
C               -38.2087160929       63.7277386254       27.5004988820
C               -38.7489859125       63.9832719556       26.2339792218
C               -37.9976658745       62.3753533066       27.7939738796
C               -39.1097163567       62.9905676804       25.3327803492
C               -38.3833758098       61.3576853681       26.9043028665
C               -38.9837772951       61.6407555000       25.6633530204
O               -39.4834854842       60.7530025878       24.7462699611
H               -38.1808957131       63.9160035079       30.7682449192
H               -35.9707116611       64.4334154399       28.9001478411
H               -38.9393117452       65.0905206340       28.9865991303
H               -37.8669829673       65.8165628912       27.7895255363
H               -38.9070669441       65.0097432202       25.9365012173
H               -37.5597284397       62.0893139357       28.7373024998
H               -39.5365392999       63.2555349283       24.3809622869
H               -38.2369513597       60.3316527414       27.2105875019
H               -39.4431339910       59.8384515421       25.0568051504
N               -38.0358968974       71.7960125123       17.1526374024
C               -38.5660217852       70.5144964079       16.7805854668
C               -40.0949236413       70.5569100912       16.5700160914
O               -40.7277112953       69.5136744150       16.5122121220
C               -38.1527231594       69.3851067087       17.7238185504
C               -37.2400577968       68.3921928481       17.0234993225
S               -36.9801622614       66.8739238666       17.9789249230
C               -38.6899087110       66.3025282281       18.1048069911
H               -38.1444058982       72.1022990648       18.1121528491
H               -38.1703464234       70.3173714358       15.7726055315
H               -37.6715371194       69.8044434071       18.6080828864
H               -39.0720818494       68.8866198590       18.0343763359
H               -37.6663857780       68.1083313401       16.0610414421
H               -36.2542714265       68.8240090411       16.8591660046
H               -38.6644412198       65.3868715192       18.6827824023
H               -39.2902970734       67.0270944319       18.6474106676
H               -39.1071237707       66.1492602648       17.1166176830
H               -31.5703419348       67.4444008013       18.6537769621
H               -46.1768485879       68.9966361223       20.6603022177
H               -47.3529829202       69.4941152514       25.0029544255
H               -44.5149873529       72.2045097578       27.1309090594
H               -46.2515964465       57.7313079058       31.0051532790
H               -46.1255389887       61.0690836407       32.3702458783
H               -41.5839146181       59.8762289590       32.4362875974
H               -41.7281175157       63.0272278442       31.1093165575
H               -36.9256264471       63.1719891669       30.3498544014
H               -37.0310722658       66.6820236576       30.6069345392
H               -37.1479612394       71.8078139306       17.0062441176
H               -40.5632626489       71.4360191305       16.4815521388
