 206 
 
N                 4.4328354485       38.0859079172       27.5135187234
C                 3.1622075667       38.0163453781       26.8513399761
C                 3.4275234499       37.7814904618       25.2746005165
O                 4.1582448810       38.3902638060       24.6857245439
C                 2.4225351539       39.3594453028       27.0401632185
O                 2.2160836395       39.4790384773       28.4358136369
C                 1.0922335185       39.4199177700       26.2857374629
H                 5.0168037779       38.9177312417       27.3720928494
H                 2.5982644348       37.1899311685       27.2668015704
H                 3.0836202086       40.1713891293       26.7028690907
H                 1.7684077524       40.3121414425       28.6124681881
H                 0.5682577146       40.3277238213       26.5175063423
H                 1.2836288149       39.3444223282       25.2089625390
H                 0.4766483522       38.5609354245       26.5661531400
N                 7.9130064480       46.7023470122       27.7023674059
C                 6.9469566645       47.7644545051       27.9681672075
C                 6.8905696032       48.0338452261       29.4647489786
O                 7.1839459604       47.2162095517       30.2890717206
C                 5.4972445851       47.3995099000       27.5397662349
C                 5.3490817373       47.3021781608       25.9617407134
C                 3.8759482763       47.0640634306       25.6608740451
C                 5.8134114016       48.5674360158       25.2580085640
H                 7.8368965478       45.8496543120       28.2798895601
H                 7.3149973059       48.6282635915       27.4153676882
H                 5.2373618852       46.4422346120       27.9471718655
H                 4.8065905841       48.1408432677       27.8903882720
H                 5.9381165176       46.4622673984       25.5952308501
H                 3.7118672531       46.9667662373       24.5923086597
H                 3.4937740128       46.1679715782       26.1530227304
H                 3.2639760529       47.8907765357       26.0241835397
H                 5.5523722550       48.4876004853       24.2078798131
H                 5.2960131214       49.4261118928       25.6621224820
H                 6.9004759785       48.7120563634       25.3204757170
N                 6.4554090374       49.2988513765       29.7436324121
C                 6.2013512844       49.7608858343       31.0867751049
C                 4.8145057248       49.3926802618       31.5351661033
O                 4.6047380814       49.0472993154       32.7709893100
C                 6.4014103968       51.2797263053       31.1678223727
C                 7.4690276339       51.6952970418       32.2122875687
C                 7.9320145693       53.1411333159       31.9606979920
N                 6.7679726646       54.0212640750       32.0551815678
C                 6.3570078555       54.8882704256       31.0174653491
N                 7.0379766723       55.1639194955       30.0300514911
N                 5.0972633828       55.4399634844       31.2548819977
H                 6.3564245020       49.9421310363       28.9672619872
H                 6.8926011432       49.2400485982       31.7933063374
H                 6.6853590007       51.6401940255       30.1750901916
H                 5.4457777048       51.7511511967       31.3921492471
H                 7.0753942578       51.5645688882       33.2003430323
H                 8.3412354861       51.0513431391       32.0758272373
H                 8.6569828416       53.4340838165       32.7094521945
H                 8.3766045814       53.2012048733       30.9716906633
H                 6.1832269888       53.8752820031       32.8004506440
H                 8.0164521974       54.8894223219       29.9102425443
H                 6.6975921298       55.8501366274       29.3069224866
H                 4.5158894931       55.1433791804       31.9519485003
H                 4.7648149716       56.0753646668       30.5447682355
N                 3.8414724305       49.4878429134       30.6540197744
C                 2.4785003409       48.9949965172       30.8394771378
C                 1.9951783984       48.5492630291       29.4153715312
O                 2.4494346441       49.0169098536       28.4521865321
C                 1.5472945395       50.1185357955       31.3639123874
O                 1.6670851411       51.3182879165       30.5979782938
H                 4.0407907739       49.7148877397       29.6808585601
H                 2.4525623713       48.1700507367       31.5382484092
H                 0.5065782394       49.7737134342       31.3593467604
H                 1.8511814887       50.3679081488       32.3766212794
H                 1.3298100393       51.2151251037       29.7844857184
N                 1.0434667622       47.5646282167       29.4615917557
C                 0.4167314817       47.1254961827       28.2263754550
C                -0.6007651077       48.1871897728       27.6654282430
O                -0.7730503724       48.2142874188       26.4980969077
C                -0.3430184241       45.8151676354       28.4181772612
C                 0.5008020668       44.6225624832       28.9115654800
C                -0.4161912758       43.4117686511       29.0573937360
C                 1.6829725032       44.3091031799       27.9772850984
O                -1.1381984230       48.9317789330       28.5837332956
H                 0.6144522291       47.3222321428       30.3255687478
H                 1.1963952842       47.0459912068       27.4589519419
H                -1.1450732329       45.9893059389       29.1458867110
H                -0.8357086234       45.5958540641       27.4731614285
H                 0.8963827217       44.8860511577       29.9077015853
H                 0.1347525953       42.5530533348       29.4409834342
H                -1.2254348426       43.6515511227       29.7484609169
H                -0.8724301910       43.1702421177       28.1086933447
H                 2.1672074076       43.3945164327       28.2936183477
H                 1.3143159129       44.1793030615       26.9643195771
H                 2.3912132529       45.1279428161       27.9856134708
N                 6.5270910452       40.1801635139       24.6579824363
C                 6.5966535843       41.4507913957       25.3201611836
C                 6.8315085006       41.1854755125       26.8969006431
O                 6.2227351564       40.4547540814       27.4857766158
C                 5.2535536596       42.1904638085       25.1313379411
O                 5.1339604852       42.3969153229       23.7356875227
C                 5.1930811924       43.5207654439       25.8857636968
H                 5.6952677207       39.5961951845       24.7994083103
H                 7.4230677939       42.0147345276       24.9046995893
H                 4.4416098331       41.5293787538       25.4686320690
H                 4.3008575200       42.8445912100       23.5590329716
H                 4.2852751411       44.0447412478       25.6539948174
H                 5.2685766342       43.3293701475       26.9625386207
H                 6.0520635379       44.1363506102       25.6053480197
N                 7.1881675848       42.8038077778       30.6658363764
C                 6.7857129965       43.9039494196       31.5319884326
C                 6.7443626280       43.4098691521       33.0329320951
O                 6.1716771375       42.3678825353       33.3300428005
C                 5.4105158149       44.3846549776       31.0924437937
C                 4.8115320492       45.3603972424       32.1374512371
S                 3.0587929559       45.6571305992       31.7990646238
C                 2.3600292222       44.0911375157       32.2221296557
H                 6.9334397120       41.8460165609       30.8809441268
H                 7.5137985153       44.7034250979       31.4576179614
H                 5.4853121432       44.8348108439       30.1168183665
H                 4.7541395322       43.5132548045       31.0008562326
H                 4.8647954770       45.0065196760       33.1534690381
H                 5.3005434165       46.3279220563       32.0614618743
H                 1.2815656355       44.2326951447       32.2697610314
H                 2.5965004776       43.3094894747       31.4968570196
H                 2.7078066244       43.8267565612       33.2216523860
N                -3.9339761415       44.1543891578       34.8228600208
C                -3.3374295688       44.1522916759       33.5035712930
C                -4.2526298106       43.6765148106       32.3806938644
O                -3.9440407684       43.8419004525       31.1539683868
C                -2.0804146300       43.2451887415       33.4888417753
C                -1.0046800810       43.8022004749       34.3559769139
C                -0.5467946434       45.2374198873       33.9298454230
O                -0.6485988641       45.5563869060       32.7647173173
O                -0.0457270598       45.9415442522       34.8731657821
H                -3.9998670458       43.2680628820       35.2997683205
H                -3.0207294356       45.1635876612       33.2469319193
H                -2.3909602111       42.2374527602       33.7974494868
H                -1.7351072653       43.2006952234       32.4460819750
H                -1.3175239130       43.8477695636       35.4114276584
H                -0.1065221047       43.1606717615       34.3036169698
N                -5.1512508315       40.4797393745       31.6651848771
C                -4.8650940487       39.1322312381       31.1662698912
C                -5.8667765583       38.1602157774       31.8044967344
O                -5.8981000382       37.9879068323       33.0765857643
C                -3.4155611601       38.7282710695       31.4842631421
C                -2.4047726011       39.7765483512       30.9774026640
C                -3.1511359107       37.3627806908       30.8163556250
C                -0.9785880314       39.5661964627       31.5704112893
H                -4.6380032513       40.8480207390       32.4399658831
H                -5.0339277674       39.1589356064       30.0927198150
H                -3.3135950438       38.6336980458       32.5754470517
H                -2.3492705811       39.7276376905       29.8983694002
H                -2.7446146414       40.7825868581       31.2354033850
H                -2.1515810548       37.0162470300       31.0389806904
H                -3.8767182868       36.6210519851       31.1726564677
H                -3.2589088415       37.4498335652       29.7529689639
H                -0.3518599162       40.3748047345       31.2569306210
H                -1.0475009227       39.5886586405       32.6641251432
H                -0.5874487701       38.6198716690       31.2601248871
N                -2.0893480498       36.6999925144       24.4691337538
C                -3.1514555427       37.6660422979       24.2033339521
C                -3.4208462637       37.7224293592       22.7067521810
O                -2.6032105893       37.4290530020       21.8824294390
C                -2.7865109376       39.1157543773       24.6317349248
C                -2.6891791984       39.2639172251       26.2097604463
C                -2.4510644682       40.7370506861       26.5106271146
C                -3.9544370534       38.7995875608       26.9134925956
H                -1.2366553496       36.7761024147       23.8916115996
H                -4.0152646291       37.2980016565       24.7561334715
H                -1.8292356496       39.3756370772       24.2243292942
H                -3.5278443053       39.8064083783       24.2811128876
H                -1.8492684360       38.6748824448       26.5762703096
H                -2.3537672749       40.9011317093       27.5791925000
H                -1.5549726158       41.1192249496       26.0184784293
H                -3.2777775733       41.3490229095       26.1473176200
H                -3.8746015229       39.0606267074       27.9636213466
H                -4.8131129304       39.3169858410       26.5093786776
H                -4.0990574010       37.7125229839       26.8510254426
N                -2.9516292543       43.5695322002       22.7099094040
C                -2.5124972203       44.1962674807       23.9451257047
C                -3.5741908104       45.2137640701       24.5060729166
O                -3.6012884564       45.3860493348       25.6734042519
C                -1.2021686730       44.9560173865       23.7533238984
C                -0.0095635208       44.1121968956       23.2599356797
C                 1.2012303113       45.0291902382       23.1141074237
C                 0.3038957825       42.9300264592       24.1942160613
O                -4.3187799706       45.7511973854       23.5877678641
H                -2.7092331804       43.9985467333       21.8459324119
H                -2.4329922444       43.4166036782       24.7125492178
H                -1.3763069765       45.7580721953       23.0256144486
H                -0.9828551017       45.4487075858       24.6983397311
H                -0.2730521953       43.7166162407       22.2637995743
H                 2.0599456276       44.4782463671       22.7305177255
H                 0.9614478397       45.8384338050       22.4230402428
H                 1.4427568447       45.4854291534       24.0628078150
H                 1.2184825297       42.4457915548       23.8778828120
H                 0.4336959009       43.2986830495       25.2071815826
H                -0.5149438537       42.2217857095       24.1858876888
H                 6.5709830053       40.3026853445       23.7674422088
H                 7.5460166882       41.6847913309       27.3869636629
H                 6.8468818086       42.9292853137       29.8425627846
H                 7.1877908919       43.9487934849       33.7491247635
H                -3.4545320452       44.6857930686       35.3685185606
H                -5.1170058927       43.2232085304       32.5983344052
H                -5.0108349822       41.0792431414       31.0087714230
H                -6.5061717379       37.6512472159       31.2281940295
H                 4.3103136180       38.0420159571       28.4040589509
H                 2.9282076315       37.0669822742       24.7845374968
H                 7.8298616938       46.4271434141       26.8495192779
H                -1.8141444517       36.7831372686       25.3219818818
H                -4.3159050651       38.0153744645       22.3705187692
H                -2.6096892716       42.7387364677       22.6564725340
