 539 
 
N                32.8630000000       -8.6630000000      -27.8200000000
C                31.8440000000       -8.1090000000      -26.9290000000
C                31.4550000000       -8.8320000000      -25.6070000000
O                32.1170000000       -8.6290000000      -24.5860000000
C                30.5730000000       -7.7830000000      -27.7560000000
C                30.6990000000       -6.8160000000      -28.9590000000
C                29.3670000000       -6.7240000000      -29.6860000000
C                31.1380000000       -5.4260000000      -28.5040000000
H                32.6040000000       -9.5510000000      -28.2500000000
H                32.4170000000       -7.2700000000      -26.5340000000
H                30.1890000000       -8.7230000000      -28.1530000000
H                29.8440000000       -7.3400000000      -27.0770000000
H                31.4570000000       -7.2000000000      -29.6420000000
H                29.4700000000       -6.0420000000      -30.5300000000
H                29.0880000000       -7.7160000000      -30.0420000000
H                28.6110000000       -6.3500000000      -28.9960000000
H                31.2150000000       -4.7750000000      -29.3750000000
H                30.3980000000       -5.0300000000      -27.8090000000
H                32.1070000000       -5.5040000000      -28.0110000000
N                30.4110000000       -9.6680000000      -25.6150000000
C                29.9200000000      -10.2920000000      -24.3730000000
C                29.9900000000      -11.7890000000      -24.1300000000
O                29.0960000000      -12.5180000000      -24.5370000000
C                28.4570000000       -9.8990000000      -24.1460000000
C                28.2040000000       -8.4100000000      -23.9030000000
C                26.7250000000       -8.1020000000      -23.6590000000
C                26.4680000000       -6.6090000000      -23.4700000000
N                25.0120000000       -6.3750000000      -23.2510000000
H                29.8910000000       -9.9300000000      -26.4520000000
H                30.6900000000       -9.9170000000      -23.7000000000
H                27.8850000000      -10.1850000000      -25.0280000000
H                28.0890000000      -10.4370000000      -23.2720000000
H                28.7650000000       -8.0910000000      -23.0250000000
H                28.5270000000       -7.8450000000      -24.7780000000
H                26.1430000000       -8.4400000000      -24.5160000000
H                26.3960000000       -8.6190000000      -22.7580000000
H                27.0170000000       -6.2470000000      -22.6000000000
H                26.7810000000       -6.0650000000      -24.3610000000
H                24.8310000000       -5.3590000000      -23.1220000000
H                24.4700000000       -6.7130000000      -24.0720000000
H                24.6930000000       -6.8860000000      -22.4030000000
N                35.6910000000      -11.1660000000      -21.0290000000
C                35.6340000000       -9.7220000000      -21.3050000000
C                34.1750000000       -9.2120000000      -21.2420000000
O                33.4040000000       -9.4200000000      -22.1820000000
C                36.2250000000       -9.4510000000      -22.6970000000
C                36.5140000000       -7.9910000000      -23.0190000000
C                37.8050000000       -7.4990000000      -22.3980000000
O                38.8490000000       -8.1570000000      -22.5990000000
O                37.7770000000       -6.4520000000      -21.7160000000
H                35.0510000000      -11.7130000000      -21.6050000000
H                36.1870000000       -9.1990000000      -20.5250000000
H                37.1670000000       -9.9930000000      -22.7800000000
H                35.5190000000       -9.8130000000      -23.4440000000
H                36.5940000000       -7.8750000000      -24.1000000000
H                35.7000000000       -7.3750000000      -22.6370000000
N                33.8080000000       -8.5420000000      -20.1440000000
C                32.4390000000       -8.0290000000      -19.9400000000
C                31.9400000000       -6.9580000000      -20.9390000000
O                30.7610000000       -6.9520000000      -21.3080000000
C                32.2750000000       -7.4960000000      -18.5000000000
C                32.4090000000       -8.5540000000      -17.4180000000
C                33.6530000000       -8.8630000000      -16.8730000000
C                31.2840000000       -9.2280000000      -16.9390000000
C                33.7740000000       -9.8190000000      -15.8640000000
C                31.3960000000      -10.1850000000      -15.9330000000
C                32.6430000000      -10.4810000000      -15.3970000000
H                34.4350000000       -8.3330000000      -19.3670000000
H                31.8020000000       -8.8960000000      -20.1110000000
H                33.0410000000       -6.7420000000      -18.3200000000
H                31.2840000000       -7.0520000000      -18.4050000000
H                34.5350000000       -8.3560000000      -17.2360000000
H                30.3130000000       -9.0040000000      -17.3550000000
H                34.7440000000      -10.0450000000      -15.4460000000
H                30.5160000000      -10.6950000000      -15.5710000000
H                32.7340000000      -11.2240000000      -14.6190000000
N                32.8240000000       -6.0540000000      -21.3610000000
C                32.4770000000       -4.9950000000      -22.3210000000
C                33.6390000000       -4.0070000000      -22.4430000000
O                34.4310000000       -4.0700000000      -23.3860000000
C                31.2150000000       -4.2600000000      -21.8730000000
H                33.7970000000       -6.0240000000      -21.0570000000
H                32.2810000000       -5.4390000000      -23.2970000000
H                30.9800000000       -3.4830000000      -22.6000000000
H                30.3920000000       -4.9720000000      -21.8120000000
H                31.3930000000       -3.8130000000      -20.8950000000
N                33.6960000000       -3.0830000000      -21.4850000000
C                34.7450000000       -2.0670000000      -21.3640000000
C                35.0490000000       -2.1260000000      -19.8640000000
O                34.2020000000       -2.5700000000      -19.0880000000
C                34.2130000000       -0.6760000000      -21.7410000000
C                33.3480000000       -0.5690000000      -23.0050000000
C                32.7110000000        0.8030000000      -23.0630000000
C                34.1760000000       -0.8290000000      -24.2510000000
H                33.0000000000       -3.0070000000      -20.7440000000
H                35.6200000000       -2.2420000000      -21.9890000000
H                33.6060000000       -0.3150000000      -20.9110000000
H                35.0710000000       -0.0200000000      -21.8890000000
H                32.5610000000       -1.3230000000      -22.9740000000
H                32.0990000000        0.8720000000      -23.9620000000
H                32.0900000000        0.9430000000      -22.1790000000
H                33.4970000000        1.5580000000      -23.0890000000
H                33.5340000000       -0.7460000000      -25.1280000000
H                34.9760000000       -0.0910000000      -24.3060000000
H                34.5990000000       -1.8320000000      -24.1930000000
N                36.2280000000       -1.6990000000      -19.4300000000
C                36.5130000000       -1.7890000000      -18.0040000000
C                35.6450000000       -0.8180000000      -17.1860000000
O                36.0740000000        0.2780000000      -16.8240000000
C                38.0110000000       -1.5870000000      -17.7620000000
C                38.8660000000       -2.5430000000      -18.6010000000
C                40.1220000000       -3.0040000000      -17.8820000000
C                40.8900000000       -3.9920000000      -18.7460000000
N                42.1260000000       -4.4990000000      -18.0920000000
H                36.9680000000       -1.3060000000      -20.0120000000
H                36.2240000000       -2.7830000000      -17.6640000000
H                38.2810000000       -0.5650000000      -18.0290000000
H                38.2310000000       -1.7680000000      -16.7100000000
H                38.2750000000       -3.4260000000      -18.8440000000
H                39.1710000000       -2.0350000000      -19.5160000000
H                40.7640000000       -2.1470000000      -17.6790000000
H                39.8500000000       -3.4960000000      -16.9480000000
H                40.2490000000       -4.8470000000      -18.9610000000
H                41.1790000000       -3.5000000000      -19.6750000000
H                42.6130000000       -5.1690000000      -18.7220000000
H                42.7670000000       -3.7080000000      -17.8810000000
H                41.8850000000       -4.9840000000      -17.2040000000
N                34.4190000000       -1.2760000000      -16.9070000000
C                33.3950000000       -0.5320000000      -16.1770000000
C                33.7240000000        0.2660000000      -14.9330000000
O                34.8320000000        0.7840000000      -14.7990000000
H                34.0930000000       -2.2010000000      -17.1870000000
H                32.9560000000        0.1780000000      -16.8780000000
H                32.6330000000       -1.2510000000      -15.8760000000
N                32.7610000000        0.3860000000      -14.0180000000
C                33.0230000000        1.1600000000      -12.8160000000
C                33.9760000000        0.4560000000      -11.8820000000
O                33.7300000000        0.3000000000      -10.6850000000
C                31.7780000000        1.6060000000      -12.0610000000
C                31.9470000000        2.9960000000      -11.4780000000
O                32.7220000000        3.8070000000      -11.9780000000
N                31.2010000000        3.2800000000      -10.4090000000
H                31.8300000000       -0.0260000000      -14.0830000000
H                33.4920000000        2.0770000000      -13.1710000000
H                30.9290000000        1.6220000000      -12.7440000000
H                31.5850000000        0.9120000000      -11.2430000000
H                31.2680000000        4.1980000000       -9.9700000000
H                30.5640000000        2.5790000000      -10.0310000000
N                35.0600000000        0.0040000000      -12.4900000000
C                36.1690000000       -0.6290000000      -11.8160000000
C                37.0740000000        0.5960000000      -11.9130000000
O                38.1070000000        0.7050000000      -11.2540000000
C                36.7350000000       -1.7910000000      -12.6640000000
C                37.9410000000       -2.4060000000      -11.9790000000
C                35.6580000000       -2.8390000000      -12.8860000000
H                35.2030000000        0.0670000000      -13.4980000000
H                36.0160000000       -1.0890000000      -10.8400000000
H                37.0550000000       -1.4080000000      -13.6330000000
H                38.3210000000       -3.2210000000      -12.5950000000
H                38.7090000000       -1.6420000000      -11.8580000000
H                37.6390000000       -2.7870000000      -11.0030000000
H                36.0710000000       -3.6510000000      -13.4840000000
H                35.3290000000       -3.2200000000      -11.9190000000
H                34.8190000000       -2.3810000000      -13.4100000000
N                36.6160000000        1.5280000000      -12.7520000000
C                37.2830000000        2.7940000000      -13.0290000000
C                37.5620000000        3.5820000000      -11.7600000000
O                38.6940000000        3.9940000000      -11.5160000000
C                36.4190000000        3.6410000000      -13.9650000000
C                36.9430000000        5.0370000000      -14.3050000000
C                38.2020000000        4.9240000000      -15.1570000000
C                35.8630000000        5.8170000000      -15.0400000000
H                35.7470000000        1.4300000000      -13.2770000000
H                38.2340000000        2.5700000000      -13.5120000000
H                36.3130000000        3.1010000000      -14.9060000000
H                35.4430000000        3.7710000000      -13.4970000000
H                37.2000000000        5.5760000000      -13.3930000000
H                38.5630000000        5.9250000000      -15.3910000000
H                38.9610000000        4.3770000000      -14.5980000000
H                37.9610000000        4.3910000000      -16.0770000000
H                36.2430000000        6.8100000000      -15.2790000000
H                35.6050000000        5.2880000000      -15.9570000000
H                34.9860000000        5.8990000000      -14.3980000000
N                36.5250000000        3.8030000000      -10.9580000000
C                36.6830000000        4.5470000000       -9.7120000000
C                37.5320000000        3.7300000000       -8.7310000000
O                38.3730000000        4.2860000000       -8.0240000000
C                35.3020000000        4.8740000000       -9.1060000000
C                35.3690000000        5.9180000000       -7.9860000000
O                35.8720000000        5.5920000000       -6.8880000000
O                34.9130000000        7.0670000000       -8.2040000000
H                35.5730000000        3.4850000000      -11.1380000000
H                37.1800000000        5.4970000000       -9.9070000000
H                34.6550000000        5.2650000000       -9.8910000000
H                34.8740000000        3.9620000000       -8.6900000000
N                37.3280000000        2.4120000000       -8.7010000000
C                38.0930000000        1.5430000000       -7.8040000000
C                39.5770000000        1.7190000000       -8.0980000000
O                40.3670000000        2.0230000000       -7.2060000000
C                37.6950000000        0.0700000000       -7.9940000000
C                38.2820000000       -0.9680000000       -7.0230000000
C                37.7580000000       -0.7200000000       -5.6120000000
C                37.9080000000       -2.3710000000       -7.4780000000
H                36.6480000000        1.9180000000       -9.2790000000
H                37.8740000000        1.8070000000       -6.7690000000
H                36.6110000000        0.0060000000       -7.9030000000
H                38.0030000000       -0.2290000000       -8.9960000000
H                39.3680000000       -0.8820000000       -7.0100000000
H                38.1840000000       -1.4640000000       -4.9390000000
H                38.0530000000        0.2800000000       -5.2950000000
H                36.6710000000       -0.8030000000       -5.6170000000
H                38.3310000000       -3.0950000000       -6.7810000000
H                36.8220000000       -2.4610000000       -7.4940000000
H                38.3100000000       -2.5390000000       -8.4770000000
N                39.9570000000        1.5310000000       -9.3540000000
C                41.3480000000        1.6930000000       -9.7270000000
C                41.8100000000        3.0880000000       -9.3160000000
O                42.8710000000        3.2440000000       -8.7130000000
C                41.5120000000        1.5020000000      -11.2200000000
H                39.3360000000        1.2710000000      -10.1210000000
H                41.9600000000        0.9400000000       -9.2310000000
H                42.5630000000        1.6270000000      -11.4800000000
H                41.1800000000        0.4990000000      -11.4880000000
H                40.9090000000        2.2450000000      -11.7410000000
N                41.0070000000        4.1020000000       -9.6300000000
C                41.3560000000        5.4770000000       -9.2840000000
C                41.5520000000        5.6000000000       -7.7830000000
O                42.3810000000        6.3850000000       -7.3110000000
C                40.2630000000        6.4790000000       -9.7290000000
C                40.2430000000        6.5870000000      -11.2590000000
C                40.5190000000        7.8420000000       -9.0970000000
C                39.2330000000        7.5830000000      -11.8120000000
H                40.1170000000        4.0070000000      -10.1190000000
H                42.2780000000        5.7150000000       -9.8150000000
H                39.2910000000        6.1170000000       -9.3950000000
H                41.2310000000        6.8990000000      -11.5970000000
H                39.9990000000        5.6080000000      -11.6720000000
H                39.7420000000        8.5350000000       -9.4200000000
H                40.4980000000        7.7400000000       -8.0120000000
H                41.4960000000        8.2040000000       -9.4170000000
H                39.2960000000        7.5850000000      -12.9000000000
H                38.2330000000        7.2850000000      -11.4980000000
H                39.4640000000        8.5750000000      -11.4240000000
N                40.7820000000        4.8170000000       -7.0360000000
C                40.8690000000        4.8300000000       -5.5840000000
C                42.2720000000        4.4120000000       -5.1740000000
O                43.0050000000        5.1740000000       -4.5410000000
C                39.8320000000        3.8770000000       -4.9790000000
H                40.0900000000        4.1650000000       -7.4050000000
H                40.6520000000        5.8300000000       -5.2080000000
H                39.9170000000        3.9040000000       -3.8930000000
H                38.8350000000        4.1980000000       -5.2820000000
H                40.0240000000        2.8670000000       -5.3420000000
N                42.6550000000        3.2040000000       -5.5580000000
C                43.9640000000        2.7070000000       -5.2010000000
C                45.0740000000        3.5850000000       -5.8010000000
O                46.0300000000        3.9200000000       -5.1080000000
C                44.1110000000        1.2080000000       -5.6240000000
C                44.4010000000        1.0970000000       -7.1070000000
C                45.1800000000        0.5200000000       -4.7770000000
H                42.0890000000        2.5580000000       -6.1080000000
H                44.0620000000        2.7610000000       -4.1170000000
H                43.1700000000        0.6870000000       -5.4440000000
H                44.4980000000        0.0440000000       -7.3720000000
H                43.5790000000        1.5460000000       -7.6640000000
H                45.3300000000        1.6230000000       -7.3270000000
H                45.2640000000       -0.5210000000       -5.0890000000
H                46.1320000000        1.0300000000       -4.9240000000
H                44.8890000000        0.5710000000       -3.7280000000
N                44.9330000000        4.0030000000       -7.0580000000
C                45.9640000000        4.8210000000       -7.7010000000
C                46.1300000000        6.2390000000       -7.1740000000
O                47.2550000000        6.7350000000       -7.0900000000
C                45.7460000000        4.9350000000       -9.2200000000
C                46.8450000000        5.7810000000       -9.8370000000
C                45.7560000000        3.5700000000       -9.8460000000
H                44.1300000000        3.7970000000       -7.6520000000
H                46.8650000000        4.2620000000       -7.4490000000
H                44.7810000000        5.4060000000       -9.4080000000
H                46.6770000000        5.8520000000      -10.9120000000
H                46.8210000000        6.7750000000       -9.3900000000
H                47.8080000000        5.3090000000       -9.6420000000
H                45.6000000000        3.6710000000      -10.9200000000
H                46.7190000000        3.0980000000       -9.6530000000
H                44.9550000000        2.9730000000       -9.4090000000
N                45.0260000000        6.9010000000       -6.8380000000
C                45.1060000000        8.2700000000       -6.3360000000
C                45.1390000000        8.3770000000       -4.8170000000
O                45.5990000000        9.3820000000       -4.2640000000
C                43.9630000000        9.1120000000       -6.9000000000
C                44.1250000000        9.4110000000       -8.3870000000
S                45.8290000000        9.8850000000       -8.8890000000
C                45.8580000000       11.6690000000       -8.4890000000
H                44.0800000000        6.5240000000       -6.9010000000
H                46.0350000000        8.7040000000       -6.7050000000
H                43.0260000000        8.5730000000       -6.7650000000
H                43.9270000000       10.0620000000       -6.3670000000
H                43.8520000000        8.5200000000       -8.9520000000
H                43.4630000000       10.2370000000       -8.6500000000
H                46.8360000000       12.0750000000       -8.7470000000
H                45.0820000000       12.1740000000       -9.0640000000
H                45.6720000000       11.7970000000       -7.4230000000
N                40.7820000000       -7.0360000000       -4.8170000000
C                40.8690000000       -5.5840000000       -4.8300000000
C                42.2720000000       -5.1740000000       -4.4120000000
O                43.0050000000       -4.5410000000       -5.1740000000
C                39.8320000000       -4.9790000000       -3.8770000000
H                40.0900000000       -7.4050000000       -4.1650000000
H                40.6520000000       -5.2080000000       -5.8300000000
H                39.9170000000       -3.8930000000       -3.9040000000
H                38.8350000000       -5.2820000000       -4.1980000000
H                40.0240000000       -5.3420000000       -2.8670000000
N                47.9560000000       -2.9430000000      -10.2380000000
C                47.6020000000       -1.9030000000      -11.1920000000
C                48.4760000000       -0.6870000000      -10.8680000000
O                49.1940000000       -0.1580000000      -11.7250000000
C                46.1140000000       -1.5470000000      -11.0450000000
C                45.6310000000       -0.5200000000      -12.0350000000
C                45.6320000000       -0.7920000000      -13.3970000000
C                45.1990000000        0.7290000000      -11.6090000000
C                45.2160000000        0.1680000000      -14.3230000000
C                44.7810000000        1.6960000000      -12.5280000000
C                44.7900000000        1.4120000000      -13.8860000000
H                47.1810000000       -3.2320000000       -9.6420000000
H                47.7540000000       -2.2310000000      -12.2200000000
H                45.5220000000       -2.4510000000      -11.1890000000
H                45.9470000000       -1.1480000000      -10.0450000000
H                45.9590000000       -1.7600000000      -13.7460000000
H                45.1860000000        0.9570000000      -10.5530000000
H                45.2260000000       -0.0590000000      -15.3790000000
H                44.4510000000        2.6640000000      -12.1810000000
H                44.4670000000        2.1560000000      -14.5990000000
N                47.1670000000        8.4110000000      -15.5780000000
C                45.9630000000        7.5910000000      -15.5440000000
C                45.0920000000        8.0740000000      -16.6930000000
O                44.6020000000        7.2800000000      -17.5060000000
C                45.2140000000        7.7580000000      -14.2210000000
C                44.0230000000        6.8000000000      -14.0950000000
C                44.5320000000        5.3650000000      -14.0300000000
C                43.2090000000        7.1280000000      -12.8590000000
H                47.3230000000        8.9830000000      -14.7480000000
H                46.2090000000        6.5320000000      -15.6240000000
H                45.8990000000        7.5580000000      -13.3970000000
H                44.8370000000        8.7790000000      -14.1530000000
H                43.3720000000        6.9060000000      -14.9630000000
H                43.6810000000        4.6900000000      -13.9400000000
H                45.0870000000        5.1440000000      -14.9420000000
H                45.1840000000        5.2590000000      -13.1630000000
H                42.3700000000        6.4350000000      -12.7920000000
H                43.8440000000        7.0290000000      -11.9790000000
H                42.8400000000        8.1510000000      -12.9380000000
N                44.9200000000        9.3910000000      -16.7470000000
C                44.1390000000       10.0440000000      -17.7900000000
C                44.5460000000        9.4120000000      -19.1190000000
O                43.8270000000        8.5770000000      -19.6720000000
C                44.4450000000       11.5540000000      -17.7760000000
C                43.6580000000       12.3670000000      -18.7740000000
C                42.2680000000       12.3920000000      -18.7380000000
C                44.3160000000       13.1300000000      -19.7370000000
C                41.5480000000       13.1720000000      -19.6450000000
C                43.6040000000       13.9110000000      -20.6460000000
C                42.2210000000       13.9310000000      -20.6020000000
H                45.3160000000       10.0440000000      -16.0710000000
H                43.0650000000        9.9280000000      -17.6440000000
H                44.2180000000       11.9440000000      -16.7840000000
H                45.5030000000       11.6950000000      -17.9990000000
H                41.7410000000       11.8030000000      -18.0020000000
H                45.3950000000       13.1160000000      -19.7800000000
H                40.4690000000       13.1880000000      -19.6050000000
H                44.1310000000       14.4990000000      -21.3830000000
H                41.6650000000       14.5320000000      -21.3060000000
N                46.1380000000        7.0340000000      -19.7840000000
C                46.0520000000        5.5810000000      -19.8200000000
C                44.6620000000        5.1320000000      -20.2180000000
O                44.4930000000        4.3710000000      -21.1730000000
C                46.4010000000        4.9550000000      -18.4660000000
C                46.3750000000        3.4370000000      -18.4720000000
C                47.4640000000        2.7050000000      -18.9420000000
C                45.2480000000        2.7420000000      -18.0270000000
C                47.4310000000        1.3080000000      -18.9720000000
C                45.2080000000        1.3470000000      -18.0550000000
C                46.3020000000        0.6320000000      -18.5270000000
H                46.2500000000        7.4450000000      -18.8570000000
H                46.7830000000        5.2360000000      -20.5510000000
H                47.4050000000        5.2700000000      -18.1820000000
H                45.6790000000        5.2980000000      -17.7240000000
H                48.3450000000        3.2240000000      -19.2880000000
H                44.3960000000        3.2920000000      -17.6560000000
H                48.2820000000        0.7550000000      -19.3410000000
H                44.3280000000        0.8240000000      -17.7100000000
H                46.2750000000       -0.4470000000      -18.5480000000
N                43.6640000000        5.6070000000      -19.4850000000
C                42.2980000000        5.2130000000      -19.7620000000
C                41.8910000000        5.4360000000      -21.2170000000
O                41.4760000000        4.4950000000      -21.8900000000
C                41.3180000000        5.9310000000      -18.8220000000
C                39.8960000000        5.5600000000      -19.1750000000
C                41.6080000000        5.5390000000      -17.3860000000
H                43.7700000000        6.2560000000      -18.7050000000
H                42.2580000000        4.1380000000      -19.5840000000
H                41.4370000000        7.0090000000      -18.9300000000
H                39.2160000000        6.0780000000      -18.4990000000
H                39.6960000000        5.8590000000      -20.2040000000
H                39.7740000000        4.4820000000      -19.0710000000
H                40.9070000000        6.0540000000      -16.7290000000
H                41.4900000000        4.4600000000      -17.2820000000
H                42.6300000000        5.8270000000      -17.1390000000
N                42.0250000000        6.6560000000      -21.7240000000
C                41.6230000000        6.8960000000      -23.1010000000
C                42.3870000000        6.0710000000      -24.1440000000
O                41.7630000000        5.5300000000      -25.0510000000
C                41.6870000000        8.3930000000      -23.4380000000
C                43.0750000000        9.0010000000      -23.5100000000
C                42.9910000000       10.5240000000      -23.6510000000
C                44.3700000000       11.1520000000      -23.8340000000
N                44.3160000000       12.6390000000      -23.8470000000
H                42.3940000000        7.4670000000      -21.2270000000
H                40.5860000000        6.5690000000      -23.1680000000
H                41.2190000000        8.5430000000      -24.4110000000
H                41.1360000000        8.9380000000      -22.6710000000
H                43.6230000000        8.7670000000      -22.5970000000
H                43.6040000000        8.6010000000      -24.3750000000
H                42.3850000000       10.7720000000      -24.5220000000
H                42.5410000000       10.9450000000      -22.7520000000
H                45.0150000000       10.8430000000      -23.0120000000
H                44.7910000000       10.8200000000      -24.7830000000
H                45.2360000000       13.0260000000      -24.1390000000
H                43.5860000000       12.9630000000      -24.5140000000
H                44.0870000000       12.9950000000      -22.8970000000
N                43.6350000000        3.2350000000      -23.7850000000
C                43.2830000000        1.8360000000      -23.6010000000
C                41.8160000000        1.5020000000      -23.8480000000
O                41.5140000000        0.4520000000      -24.4130000000
C                43.6890000000        1.3920000000      -22.2060000000
H                43.5020000000        3.8150000000      -22.9560000000
H                43.8420000000        1.2610000000      -24.3390000000
H                43.4220000000        0.3430000000      -22.0760000000
H                44.7660000000        1.5190000000      -22.0930000000
H                43.1630000000        2.0030000000      -21.4720000000
N                40.9110000000        2.3850000000      -23.4270000000
C                39.4700000000        2.1620000000      -23.6010000000
C                39.0870000000        1.8310000000      -25.0440000000
O                38.1620000000        1.0530000000      -25.2910000000
C                38.6570000000        3.3910000000      -23.1440000000
C                38.2010000000        3.3020000000      -21.6850000000
O                38.0580000000        2.2120000000      -21.1210000000
N                37.9440000000        4.4600000000      -21.0800000000
H                41.1370000000        3.2640000000      -22.9620000000
H                39.2090000000        1.3130000000      -22.9690000000
H                39.2750000000        4.2830000000      -23.2480000000
H                37.7680000000        3.4790000000      -23.7680000000
H                37.6360000000        4.4700000000      -20.1080000000
H                38.0550000000        5.3370000000      -21.5890000000
N                39.8030000000        2.4190000000      -25.9960000000
C                39.5130000000        2.1940000000      -27.4060000000
C                40.3190000000        1.0510000000      -28.0180000000
O                39.7470000000        0.1490000000      -28.6340000000
C                39.7590000000        3.4750000000      -28.2270000000
O                38.8780000000        4.5120000000      -27.7730000000
C                39.5130000000        3.2130000000      -29.7060000000
H                40.5840000000        3.0520000000      -25.8240000000
H                38.4570000000        1.9320000000      -27.4680000000
H                40.7930000000        3.7970000000      -28.1020000000
H                39.0290000000        5.3310000000      -28.2900000000
H                39.6880000000        4.1230000000      -30.2800000000
H                40.1860000000        2.4340000000      -30.0640000000
H                38.4840000000        2.8900000000      -29.8610000000
N                41.6400000000        1.0950000000      -27.8550000000
C                42.5180000000        0.0570000000      -28.3950000000
C                42.4770000000       -1.2160000000      -27.5510000000
O                43.5200000000       -1.7570000000      -27.1970000000
C                43.9690000000        0.5630000000      -28.4780000000
C                44.4570000000        1.4090000000      -29.6650000000
C                45.8090000000        2.0240000000      -29.3260000000
C                44.5710000000        0.5500000000      -30.9220000000
H                42.1330000000        1.8350000000      -27.3550000000
H                42.1670000000       -0.1870000000      -29.3980000000
H                44.1420000000        1.1710000000      -27.5900000000
H                44.6120000000       -0.3170000000      -28.4580000000
H                43.7410000000        2.2070000000      -29.8650000000
H                46.1490000000        2.6220000000      -30.1710000000
H                45.7010000000        2.6550000000      -28.4440000000
H                46.5220000000        1.2250000000      -29.1260000000
H                44.9190000000        1.1720000000      -31.7470000000
H                45.2820000000       -0.2550000000      -30.7380000000
H                43.5910000000        0.1340000000      -31.1570000000
N                41.2770000000       -1.6960000000      -27.2370000000
C                41.1210000000       -2.9080000000      -26.4310000000
C                41.1220000000       -4.2090000000      -27.2400000000
O                40.0580000000       -4.7690000000      -27.5150000000
C                39.8240000000       -2.8440000000      -25.6200000000
C                39.8240000000       -1.8190000000      -24.5100000000
S                38.2560000000       -1.7980000000      -23.6350000000
C                38.5230000000       -3.0870000000      -22.4000000000
H                40.3950000000       -1.2710000000      -27.5240000000
H                42.0110000000       -2.9150000000      -25.8020000000
H                39.0050000000       -2.5970000000      -26.2950000000
H                39.6510000000       -3.8200000000      -25.1660000000
H                40.6120000000       -2.0600000000      -23.7960000000
H                39.9940000000       -0.8290000000      -24.9330000000
H                37.6270000000       -3.1810000000      -21.7860000000
H                38.7250000000       -4.0290000000      -22.9090000000
H                39.3740000000       -2.8110000000      -21.7770000000
N                42.3090000000       -4.6890000000      -27.6130000000
C                42.4300000000       -5.9360000000      -28.3740000000
C                42.4350000000       -7.1440000000      -27.4330000000
O                42.9680000000       -7.0740000000      -26.3240000000
C                43.7150000000       -5.9400000000      -29.2210000000
C                43.6100000000       -5.2080000000      -30.5530000000
C                44.9050000000       -5.3010000000      -31.3410000000
C                44.7920000000       -4.5390000000      -32.6460000000
N                46.0670000000       -4.5560000000      -33.3990000000
H                43.2020000000       -4.2410000000      -27.4060000000
H                41.5770000000       -6.0210000000      -29.0470000000
H                44.5080000000       -5.4610000000      -28.6470000000
H                43.9830000000       -6.9740000000      -29.4370000000
H                42.8130000000       -5.6540000000      -31.1490000000
H                43.3940000000       -4.1550000000      -30.3710000000
H                45.7190000000       -4.8700000000      -30.7570000000
H                45.1200000000       -6.3450000000      -31.5670000000
H                44.0220000000       -4.9980000000      -33.2660000000
H                44.5320000000       -3.5010000000      -32.4360000000
H                45.9620000000       -4.0270000000      -34.2880000000
H                46.8210000000       -4.1170000000      -32.8320000000
H                46.3370000000       -5.5360000000      -33.6190000000
H                33.0245647276       -8.0830364915      -28.4889836826
H                30.7673238578      -12.1796977472      -23.6369250660
H                36.5234965169      -11.4693943403      -21.1868018491
H                44.7858979857        7.6288170167       -4.2552694676
H                40.5570915531       -7.3308431233       -5.6370510491
H                42.6147330639       -5.4177777762       -3.5047478615
H                48.2402001413       -3.6730089838      -10.6810769270
H                48.4749166633       -0.3021470569       -9.9450227313
H                47.8891556902        7.8809186864      -15.6646311723
H                45.4074055078        9.6739031906      -19.5541864771
H                46.8463169606        7.3051252906      -20.2685391214
H                43.3807110283        5.9797272833      -24.0791333416
H                44.5031650211        3.2988073587      -24.0135128381
H                42.0030089229       -8.0002406640      -27.7162589532
