 513 
 
N                76.1510000000       54.2910000000      209.6700000000
C                75.2770000000       55.0900000000      208.7470000000
C                74.0390000000       55.6480000000      209.4560000000
O                73.4560000000       54.9820000000      210.3590000000
C                74.8330000000       54.2230000000      207.5280000000
O                73.9600000000       53.1180000000      207.8730000000
H                76.5560000000       53.6460000000      209.2100000000
H                76.7640000000       54.8250000000      210.0340000000
H                75.6530000000       53.9300000000      210.3120000000
H                75.7950000000       55.8440000000      208.4250000000
H                74.3620000000       54.7980000000      206.9040000000
H                75.6290000000       53.8600000000      207.1090000000
H                73.8300000000       52.6340000000      207.1990000000
N                73.6420000000       56.8640000000      209.0490000000
C                72.3040000000       57.3420000000      209.3890000000
C                71.2310000000       56.3710000000      208.9210000000
O                70.3400000000       56.0090000000      209.6930000000
C                72.1080000000       58.7130000000      208.7770000000
C                70.9490000000       59.5830000000      209.3420000000
C                71.2190000000       61.1290000000      209.1440000000
O                71.7490000000       61.5520000000      208.0860000000
O                70.9410000000       61.9420000000      210.0560000000
H                74.1180000000       57.4130000000      208.5880000000
H                72.2170000000       57.4180000000      210.3520000000
H                72.9270000000       59.2170000000      208.9040000000
H                71.9350000000       58.5950000000      207.8300000000
H                70.1260000000       59.3580000000      208.8810000000
H                70.8550000000       59.4110000000      210.2920000000
N                71.3670000000       55.8640000000      207.6960000000
C                70.3920000000       55.0010000000      207.0310000000
C                69.7390000000       53.8790000000      207.8410000000
O                68.5030000000       53.8040000000      207.9210000000
C                71.1000000000       54.3850000000      205.7910000000
C                70.1530000000       53.8330000000      204.7540000000
C                69.4930000000       52.6100000000      204.9360000000
C                69.9340000000       54.5450000000      203.5840000000
C                68.6020000000       52.1340000000      203.9860000000
C                69.0510000000       54.0790000000      202.6300000000
C                68.3710000000       52.8700000000      202.8350000000
H                72.0530000000       56.0140000000      207.2000000000
H                69.6470000000       55.5810000000      206.8110000000
H                71.6360000000       55.0730000000      205.3650000000
H                71.6700000000       53.6580000000      206.0880000000
H                69.6540000000       52.1110000000      205.7040000000
H                70.3870000000       55.3440000000      203.4400000000
H                68.1610000000       51.3260000000      204.1220000000
H                68.9060000000       54.5680000000      201.8520000000
H                67.7660000000       52.5620000000      202.1990000000
N                69.5860000000       53.4440000000      210.8830000000
C                68.9900000000       54.0020000000      212.0950000000
C                67.6680000000       54.6900000000      211.8040000000
O                66.7150000000       54.5560000000      212.5840000000
C                69.9430000000       55.0000000000      212.7700000000
H                70.2100000000       53.9360000000      210.5560000000
H                68.8360000000       53.2680000000      212.7110000000
H                69.5230000000       55.3440000000      213.5730000000
H                70.7680000000       54.5430000000      212.9980000000
H                70.1260000000       55.7270000000      212.1550000000
N                67.6040000000       55.4380000000      210.6980000000
C                66.3510000000       56.0560000000      210.2850000000
C                65.2930000000       54.9950000000      210.0180000000
O                64.1170000000       55.1810000000      210.3590000000
C                66.5680000000       56.9610000000      209.0620000000
C                65.2680000000       57.4320000000      208.5600000000
C                67.4450000000       58.1690000000      209.4250000000
H                68.2690000000       55.6000000000      210.1770000000
H                66.0350000000       56.6150000000      211.0130000000
H                67.0200000000       56.4520000000      208.3720000000
H                65.4180000000       58.0450000000      207.8240000000
H                64.7520000000       56.6690000000      208.2560000000
H                64.7980000000       57.8850000000      209.2770000000
H                67.5620000000       58.7220000000      208.6370000000
H                67.0080000000       58.6780000000      210.1250000000
H                68.3070000000       57.8510000000      209.7360000000
N                65.6840000000       53.8530000000      209.4480000000
C                64.7120000000       52.7680000000      209.2970000000
C                64.1540000000       52.3430000000      210.6630000000
O                62.9480000000       52.0740000000      210.7990000000
C                65.3260000000       51.5660000000      208.5590000000
C                65.8010000000       51.9730000000      207.1740000000
C                64.2930000000       50.4490000000      208.5280000000
C                66.5630000000       50.8720000000      206.4640000000
H                66.4740000000       53.6870000000      209.1510000000
H                63.9820000000       53.1080000000      208.7570000000
H                66.1140000000       51.2450000000      209.0250000000
H                65.0300000000       52.2020000000      206.6310000000
H                66.3890000000       52.7400000000      207.2550000000
H                64.6650000000       49.6870000000      208.0570000000
H                64.0710000000       50.1990000000      209.4380000000
H                63.4990000000       50.7660000000      208.0690000000
H                66.7780000000       51.1660000000      205.5650000000
H                67.3790000000       50.6850000000      206.9550000000
H                66.0090000000       50.0760000000      206.4280000000
N                63.8840000000       54.1740000000      213.4130000000
C                63.0540000000       55.1980000000      214.0330000000
C                61.6710000000       55.1930000000      213.4080000000
O                60.6390000000       55.2170000000      214.0960000000
C                63.7190000000       56.5710000000      213.8900000000
C                62.7260000000       57.6380000000      214.3310000000
C                65.0120000000       56.5810000000      214.6540000000
H                64.5660000000       54.4730000000      212.9820000000
H                62.9630000000       54.9990000000      214.9780000000
H                63.9540000000       56.7710000000      212.9700000000
H                63.1600000000       58.5050000000      214.3010000000
H                61.9650000000       57.6290000000      213.7300000000
H                62.4360000000       57.4450000000      215.2360000000
H                65.4530000000       57.4340000000      214.5170000000
H                64.8220000000       56.4550000000      215.5970000000
H                65.5760000000       55.8620000000      214.3310000000
N                61.6470000000       55.1800000000      212.0780000000
C                60.4070000000       55.2100000000      211.3100000000
C                59.5710000000       53.9750000000      211.5950000000
O                58.3510000000       54.0500000000      211.7880000000
C                60.7520000000       55.3380000000      209.8190000000
C                61.1490000000       56.7920000000      209.5520000000
C                59.6120000000       54.8200000000      208.9360000000
C                61.5810000000       56.9180000000      208.1500000000
H                62.3510000000       55.1540000000      211.5840000000
H                59.8790000000       55.9790000000      211.5780000000
H                61.5070000000       54.7740000000      209.5880000000
H                60.3890000000       57.3750000000      209.7030000000
H                61.8830000000       57.0460000000      210.1330000000
H                59.8510000000       54.9470000000      208.0040000000
H                59.4750000000       53.8770000000      209.1160000000
H                58.8030000000       55.3160000000      209.1400000000
H                61.8400000000       57.8380000000      207.9810000000
H                62.3360000000       56.3290000000      207.9980000000
H                60.8450000000       56.6700000000      207.5690000000
N                63.4340000000       54.5390000000      201.2390000000
C                64.5550000000       55.4150000000      201.5390000000
C                65.6380000000       55.3510000000      200.4750000000
O                66.1660000000       56.3930000000      200.0590000000
C                65.1500000000       55.1020000000      202.8900000000
C                64.4250000000       55.7640000000      204.0380000000
C                65.0580000000       55.2230000000      205.3310000000
C                64.5390000000       57.2550000000      203.9160000000
H                63.2250000000       53.9860000000      201.8640000000
H                64.2040000000       56.3190000000      201.5620000000
H                65.1160000000       54.1420000000      203.0310000000
H                66.0710000000       55.4060000000      202.9040000000
H                63.4740000000       55.5700000000      204.0460000000
H                64.6140000000       55.6260000000      206.0930000000
H                64.9500000000       54.2600000000      205.3560000000
H                66.0010000000       55.4510000000      205.3390000000
H                64.1540000000       57.6670000000      204.7050000000
H                65.4760000000       57.4950000000      203.8420000000
H                64.0600000000       57.5440000000      203.1240000000
N                64.7200000000       57.0510000000      197.2570000000
C                64.7390000000       58.5020000000      197.3460000000
C                66.1520000000       59.0470000000      197.4230000000
O                66.3790000000       60.1580000000      196.9170000000
C                63.9240000000       58.9420000000      198.5380000000
C                62.4330000000       58.6330000000      198.5080000000
C                61.8320000000       58.7550000000      199.9260000000
C                61.6710000000       59.5770000000      197.6410000000
H                64.3840000000       56.6370000000      197.9320000000
H                64.3330000000       58.8770000000      196.5490000000
H                64.2880000000       58.5070000000      199.3250000000
H                64.0120000000       59.9050000000      198.6210000000
H                62.3450000000       57.7330000000      198.1570000000
H                60.8760000000       58.5980000000      199.8790000000
H                62.2480000000       58.0940000000      200.5030000000
H                62.0050000000       59.6460000000      200.2670000000
H                60.7260000000       59.3660000000      197.6990000000
H                61.8270000000       60.4840000000      197.9480000000
H                61.9760000000       59.4800000000      196.7250000000
N                67.1010000000       58.2880000000      198.0370000000
C                68.5210000000       58.6670000000      197.9740000000
C                68.9940000000       58.6770000000      196.5270000000
O                69.5760000000       59.6700000000      196.0520000000
C                69.4430000000       57.7480000000      198.7940000000
C                69.4360000000       57.7840000000      200.3790000000
C                69.9090000000       59.0870000000      201.0260000000
O                69.4060000000       59.5020000000      202.0660000000
N                70.8100000000       59.7790000000      200.3490000000
H                66.9430000000       57.5700000000      198.4820000000
H                68.5880000000       59.5480000000      198.3750000000
H                69.2230000000       56.8360000000      198.5500000000
H                70.3540000000       57.9520000000      198.5290000000
H                68.5280000000       57.6290000000      200.6810000000
H                70.0180000000       57.0780000000      200.7000000000
H                71.0940000000       59.4880000000      199.5910000000
H                71.1110000000       60.5190000000      200.6660000000
N                66.5280000000       63.0930000000      195.8250000000
C                65.5980000000       63.8740000000      196.6430000000
C                66.1180000000       64.0880000000      198.0540000000
O                66.3410000000       65.2340000000      198.4780000000
C                64.2600000000       63.1710000000      196.7490000000
C                63.2760000000       63.7300000000      195.7560000000
C                63.6760000000       63.2090000000      194.3690000000
C                61.9390000000       63.2530000000      196.1360000000
H                66.3100000000       62.2650000000      195.7480000000
H                65.4910000000       64.7310000000      196.2020000000
H                64.3780000000       62.2260000000      196.5680000000
H                63.9010000000       63.2960000000      197.6420000000
H                63.2650000000       64.6990000000      195.7370000000
H                63.0430000000       63.5390000000      193.7130000000
H                64.5680000000       63.5280000000      194.1580000000
H                63.6650000000       62.2390000000      194.3810000000
H                61.2880000000       63.6090000000      195.5110000000
H                61.9300000000       62.2840000000      196.1080000000
H                61.7380000000       63.5610000000      197.0340000000
N                66.2930000000       62.9820000000      198.7920000000
C                66.9180000000       62.9960000000      200.1050000000
C                68.4380000000       63.0360000000      200.0090000000
O                69.0410000000       62.1250000000      199.4130000000
C                66.5530000000       61.7270000000      200.8410000000
C                65.1380000000       61.5300000000      201.3450000000
C                65.1360000000       60.2350000000      202.1870000000
C                64.7090000000       62.7000000000      202.1180000000
H                66.0490000000       62.1970000000      198.5410000000
H                66.6090000000       63.7920000000      200.5670000000
H                66.7330000000       60.9860000000      200.2410000000
H                67.1280000000       61.6710000000      201.6200000000
H                64.5000000000       61.4400000000      200.6200000000
H                64.2410000000       60.0840000000      202.5310000000
H                65.4030000000       59.4920000000      201.6240000000
H                65.7610000000       60.3350000000      202.9220000000
H                63.8180000000       62.5390000000      202.4660000000
H                65.3290000000       62.8400000000      202.8510000000
H                64.7020000000       63.4770000000      201.5380000000
N                69.0790000000       64.0410000000      200.6280000000
C                70.5420000000       63.9600000000      200.6340000000
C                71.0400000000       63.0380000000      201.7400000000
O                71.9630000000       62.2320000000      201.5320000000
C                71.1590000000       65.3420000000      200.7270000000
C                71.3850000000       65.8990000000      199.3610000000
S                71.6070000000       67.6660000000      199.3760000000
C                71.1190000000       68.0010000000      197.6560000000
H                68.7200000000       64.7190000000      201.0160000000
H                70.8350000000       63.5950000000      199.7840000000
H                70.5610000000       65.9340000000      201.2090000000
H                72.0120000000       65.2870000000      201.1850000000
H                72.1830000000       65.4980000000      198.9820000000
H                70.6160000000       65.6970000000      198.8050000000
H                71.1040000000       68.9600000000      197.5130000000
H                71.7630000000       67.5880000000      197.0590000000
H                70.2370000000       67.6290000000      197.5000000000
N                70.3830000000       63.1120000000      202.8930000000
C                70.6590000000       62.4100000000      204.1260000000
C                69.3270000000       61.7840000000      204.5240000000
O                68.2750000000       62.4220000000      204.4100000000
C                71.1490000000       63.4150000000      205.1830000000
O                72.0400000000       64.3980000000      204.6200000000
H                69.6970000000       63.6210000000      202.9900000000
H                71.3420000000       61.7250000000      204.0540000000
H                70.3800000000       63.8710000000      205.5590000000
H                71.6200000000       62.9310000000      205.8790000000
H                72.6690000000       64.5540000000      205.1530000000
N                69.3000000000       60.5320000000      204.9320000000
C                67.9750000000       59.9340000000      205.1970000000
C                67.2020000000       60.6810000000      206.2820000000
O                65.9720000000       60.6380000000      206.2430000000
C                68.2720000000       58.4670000000      205.5790000000
C                69.7430000000       58.2880000000      205.4520000000
C                70.4330000000       59.6480000000      205.2590000000
H                67.4500000000       59.9100000000      204.3820000000
H                67.9860000000       58.3060000000      206.4920000000
H                67.8020000000       57.8730000000      204.9740000000
H                70.0730000000       57.8660000000      206.2600000000
H                69.9190000000       57.7200000000      204.6860000000
H                70.8750000000       59.9340000000      206.0740000000
H                71.0710000000       59.6150000000      204.5290000000
N                67.8650000000       61.3980000000      207.2150000000
C                67.1320000000       62.1570000000      208.2270000000
C                66.3890000000       63.3730000000      207.6260000000
O                65.5290000000       63.9590000000      208.3010000000
C                68.0750000000       62.7190000000      209.3000000000
O                68.9190000000       63.7710000000      208.7710000000
H                68.7210000000       61.4540000000      207.2750000000
H                66.5060000000       61.5390000000      208.6350000000
H                67.5430000000       63.0800000000      210.0260000000
H                68.6390000000       62.0000000000      209.6270000000
H                69.4270000000       64.0630000000      209.3740000000
N                66.7600000000       63.8290000000      206.4190000000
C                66.0620000000       64.9580000000      205.8130000000
C                64.5940000000       64.6440000000      205.5670000000
O                63.8030000000       65.5590000000      205.2430000000
C                66.7280000000       65.3690000000      204.4970000000
C                68.1730000000       65.8070000000      204.6570000000
O                68.4770000000       66.1390000000      205.8060000000
O                68.9910000000       65.8400000000      203.6860000000
H                67.4000000000       63.5050000000      205.9450000000
H                66.1250000000       65.7180000000      206.4130000000
H                66.7130000000       64.6130000000      203.8890000000
H                66.2340000000       66.1120000000      204.1150000000
N                64.2200000000       63.3610000000      205.6930000000
C                62.8560000000       62.9130000000      205.4540000000
C                61.9430000000       63.2340000000      206.6140000000
O                60.7290000000       63.1080000000      206.4780000000
C                62.8490000000       61.4130000000      205.1840000000
C                61.5120000000       60.8240000000      204.9710000000
C                61.6380000000       59.7550000000      204.0030000000
C                61.0710000000       60.1450000000      206.0800000000
H                64.7530000000       62.7260000000      205.9200000000
H                62.5020000000       63.3530000000      204.6650000000
H                63.3730000000       61.2430000000      204.3860000000
H                63.2480000000       60.9630000000      205.9460000000
H                60.9170000000       61.5480000000      204.7220000000
H                60.7780000000       59.3190000000      203.9010000000
H                61.9220000000       60.1300000000      203.1550000000
H                62.2970000000       59.1180000000      204.3200000000
H                60.2070000000       59.7500000000      205.8860000000
H                61.7110000000       59.4500000000      206.3000000000
H                60.9920000000       60.7670000000      206.8200000000
N                62.4980000000       63.6050000000      207.7550000000
C                61.6770000000       64.0250000000      208.8710000000
C                61.2030000000       65.4440000000      208.7050000000
O                60.1130000000       65.7580000000      209.1640000000
C                62.4500000000       63.9430000000      210.1840000000
C                63.0880000000       62.6050000000      210.5400000000
C                62.4060000000       61.3980000000      210.3880000000
C                64.3510000000       62.5650000000      211.1010000000
C                63.0100000000       60.1750000000      210.7570000000
C                64.9600000000       61.3820000000      211.4660000000
C                64.2910000000       60.1930000000      211.2910000000
O                64.9350000000       59.0500000000      211.6640000000
H                63.3440000000       63.6220000000      207.9070000000
H                60.9190000000       63.4220000000      208.9190000000
H                63.1680000000       64.5950000000      210.1490000000
H                61.8380000000       64.1620000000      210.9040000000
H                61.5430000000       61.3980000000      210.0410000000
H                64.8070000000       63.3640000000      211.2370000000
H                62.5570000000       59.3710000000      210.6440000000
H                65.8170000000       61.3880000000      211.8280000000
H                65.7350000000       59.2200000000      211.8550000000
N                60.1910000000       68.4570000000      202.9320000000
C                60.4210000000       67.4330000000      201.9330000000
C                59.1760000000       66.6350000000      201.6270000000
O                59.1760000000       65.8890000000      200.6620000000
C                61.5380000000       66.5080000000      202.4200000000
O                61.2300000000       65.9820000000      203.6650000000
H                60.2930000000       68.1910000000      203.7430000000
H                60.7110000000       67.8380000000      201.1010000000
H                61.6460000000       65.7810000000      201.7870000000
H                62.3620000000       67.0150000000      202.4860000000
H                61.0950000000       66.6030000000      204.2140000000
N                58.4160000000       64.7470000000      197.9340000000
C                58.4050000000       63.2870000000      197.9200000000
C                57.1170000000       62.7800000000      197.3010000000
O                57.1440000000       61.9550000000      196.3880000000
C                58.5810000000       62.7270000000      199.3440000000
C                59.9980000000       62.9800000000      199.8040000000
C                58.2540000000       61.2510000000      199.3340000000
C                60.0970000000       63.0470000000      201.2690000000
H                58.5220000000       65.0990000000      198.7120000000
H                59.1520000000       62.9850000000      197.3800000000
H                57.9800000000       63.1690000000      199.9630000000
H                60.5680000000       62.2590000000      199.4940000000
H                60.3050000000       63.8260000000      199.4410000000
H                58.4540000000       60.8780000000      200.2060000000
H                57.3120000000       61.1380000000      199.1330000000
H                58.7920000000       60.8140000000      198.6560000000
H                61.0180000000       63.2210000000      201.5160000000
H                59.5270000000       63.7630000000      201.5920000000
H                59.8080000000       62.2000000000      201.6440000000
O                66.8920000000       59.4200000000      213.5960000000
H                67.5690000000       59.8780000000      213.3790000000
H                66.4240000000       59.9180000000      214.0860000000
N                68.2559965820       71.6909965820      195.8250000000
C                69.1859965820       70.9099965820      196.6430000000
C                68.6659965820       70.6959965820      198.0540000000
O                68.4429965820       69.5499965820      198.4780000000
C                70.5239965820       71.6129965820      196.7490000000
C                71.5079965820       71.0539965820      195.7560000000
C                71.1079965820       71.5749965820      194.3690000000
C                72.8449965820       71.5309965820      196.1360000000
H                68.4739965820       72.5189965820      195.7480000000
H                69.2929965820       70.0529965820      196.2020000000
H                70.4059965820       72.5579965820      196.5680000000
H                70.8829965820       71.4879965820      197.6420000000
H                71.5189965820       70.0849965820      195.7370000000
H                71.7409965820       71.2449965820      193.7130000000
H                70.2159965820       71.2559965820      194.1580000000
H                71.1189965820       72.5449965820      194.3810000000
H                73.4959965820       71.1749965820      195.5110000000
H                72.8539965820       72.4999965820      196.1080000000
H                73.0459965820       71.2229965820      197.0340000000
N                72.7769965820       68.4769965820      208.0750000000
C                73.1459965820       67.0759965820      207.9330000000
C                74.3569965820       66.9989965820      207.0200000000
O                74.4549965820       67.7899965820      206.1030000000
C                71.9679965820       66.2879965820      207.3820000000
O                70.8669965820       66.3639965820      208.2950000000
H                72.0189965820       68.6809965820      207.7250000000
H                73.3789965820       66.6719965820      208.7830000000
H                71.7029965820       66.6639965820      206.5280000000
H                72.2279965820       65.3599965820      207.2690000000
H                70.2509965820       65.8499965820      208.0460000000
N                75.3579965820       64.5639965820      204.9810000000
C                75.0319965820       64.0299965820      203.6720000000
C                74.9339965820       65.0859965820      202.5800000000
O                75.1349965820       64.7769965820      201.4100000000
H                74.8669965820       64.2709965820      205.6240000000
H                75.7179965820       63.3949965820      203.4120000000
H                74.1789965820       63.5709965820      203.7220000000
N                74.5929965820       66.3269965820      202.9320000000
C                74.3629965820       67.3509965820      201.9330000000
C                75.6079965820       68.1489965820      201.6270000000
O                75.6079965820       68.8949965820      200.6620000000
C                73.2459965820       68.2759965820      202.4200000000
O                73.5539965820       68.8019965820      203.6650000000
H                74.4909965820       66.5929965820      203.7430000000
H                74.0729965820       66.9459965820      201.1010000000
H                73.1379965820       69.0029965820      201.7870000000
H                72.4219965820       67.7689965820      202.4860000000
H                73.6889965820       68.1809965820      204.2140000000
N                77.4669965820       67.2559965820      197.9450000000
C                76.5499965820       67.8429965820      196.9510000000
C                76.5149965820       69.3589965820      196.8110000000
O                76.5889965820       69.9239965820      195.7120000000
C                75.1799965820       67.3369965820      197.4300000000
C                75.4919965820       65.9929965820      197.9610000000
C                76.8629965820       66.0859965820      198.6020000000
H                76.8159965820       67.4869965820      196.0880000000
H                74.8269965820       67.9179965820      198.1220000000
H                74.5569965820       67.2889965820      196.6870000000
H                74.8249965820       65.7409965820      198.6180000000
H                75.4999965820       65.3509965820      197.2330000000
H                76.7869965820       66.2289965820      199.5580000000
H                77.3809965820       65.2859965820      198.4260000000
N                76.3679965820       70.0369965820      197.9340000000
C                76.3789965820       71.4969965820      197.9200000000
C                77.6669965820       72.0039965820      197.3010000000
O                77.6399965820       72.8289965820      196.3880000000
C                76.2029965820       72.0569965820      199.3440000000
C                74.7859965820       71.8039965820      199.8040000000
C                76.5299965820       73.5329965820      199.3340000000
C                74.6869965820       71.7369965820      201.2690000000
H                76.2619965820       69.6849965820      198.7120000000
H                75.6319965820       71.7989965820      197.3800000000
H                76.8039965820       71.6149965820      199.9630000000
H                74.2159965820       72.5249965820      199.4940000000
H                74.4789965820       70.9579965820      199.4410000000
H                76.3299965820       73.9059965820      200.2060000000
H                77.4719965820       73.6459965820      199.1330000000
H                75.9919965820       73.9699965820      198.6560000000
H                73.7659965820       71.5629965820      201.5160000000
H                75.2569965820       71.0209965820      201.5920000000
H                74.9759965820       72.5839965820      201.6440000000
N                68.9190000000       59.3010000000      218.0989943848
C                68.2310000000       59.2490000000      216.8049943848
C                66.7570000000       59.5510000000      217.0019943848
O                66.1350000000       60.2200000000      216.1749943848
C                68.3660000000       57.8730000000      216.1069943848
C                69.7970000000       57.5070000000      215.6999943848
C                70.3880000000       58.4360000000      214.6549943848
O                69.6970000000       58.8110000000      213.6629943848
O                71.5450000000       58.8650000000      214.8849943848
H                69.2320000000       58.5470000000      218.3719943848
H                68.6530000000       59.9020000000      216.2239943848
H                68.0490000000       57.1860000000      216.7149943848
H                67.8250000000       57.8800000000      215.3029943848
H                70.3650000000       57.5450000000      216.4859943848
H                69.7970000000       56.6090000000      215.3329943848
N                66.5510000000       63.3190000000      217.2709943848
C                66.6660000000       63.8990000000      215.9339943848
C                65.3370000000       63.8330000000      215.1609943848
O                65.0130000000       64.7240000000      214.3529943848
C                67.7710000000       63.1660000000      215.1619943848
C                68.1270000000       63.7310000000      213.7949943848
C                68.8860000000       62.6870000000      212.9439943848
C                70.2100000000       62.2920000000      213.5779943848
N                70.8950000000       61.3530000000      212.6899943848
H                67.1480000000       62.7300000000      217.4589943848
H                66.9050000000       64.8350000000      216.0169943848
H                68.5790000000       63.1880000000      215.6979943848
H                67.4880000000       62.2490000000      215.0259943848
H                67.3150000000       63.9770000000      213.3259943848
H                68.6960000000       64.5090000000      213.9049943848
H                68.3420000000       61.8890000000      212.8569943848
H                69.0690000000       63.0610000000      212.0679943848
H                70.7670000000       63.0770000000      213.6979943848
H                70.0530000000       61.8620000000      214.4329943848
H                71.6710000000       61.1050000000      213.0489943848
H                70.3910000000       60.6300000000      212.5649943848
H                71.0500000000       61.7370000000      211.9019943848
N                75.0739965820       63.1779965820      212.4319943848
C                74.8869965820       61.9939965820      211.5959943848
C                74.1829965820       60.8109965820      212.3149943848
O                73.9629965820       60.7779965820      213.5509943848
O                73.7859965820       59.8119965820      211.6879943848
H                74.7379965820       63.8969965820      212.0989943848
H                74.3509965820       62.2349965820      210.8249943848
H                75.7549965820       61.6839965820      211.2929943848
H                70.3086801006       53.2028650895      208.3082324537
H                69.9430494371       52.6386361810      211.0671326112
H                64.7624324950       52.2804221526      211.4541345727
H                64.2015705903       53.6200278505      214.0472426805
H                60.0048560652       53.0747017938      211.6301006343
H                62.6999386036       55.0345259887      201.0789754370
H                65.9268913751       54.4667097370      200.1081587480
H                64.2336873797       56.8001801877      196.5424445738
H                68.8385882368       57.8790645306      195.9446374234
H                66.5613151572       63.4389443308      194.9948116959
H                61.7758325946       66.1098139165      208.2269261070
H                60.7675281581       69.1361936044      202.8042841799
H                58.3693978767       66.7231009721      202.2114922868
H                59.0904463093       65.0473027727      197.4192763649
H                56.2360155893       63.1159561373      197.6341665377
H                68.2226814248       71.3450522512      194.9948116959
H                68.5002848847       71.4814676922      198.6503009043
H                72.7280858819       68.6877288015      208.9486130007
H                75.0589550168       66.3045284470      207.1780138138
H                76.2080757729       64.3532471136      205.1882438922
H                76.4145987054       68.0608956099      202.2114922868
H                78.0524848040       66.7130268195      197.5298044090
H                78.5479809928       71.6680404448      197.6341665377
H                69.6166133609       59.8671322720      218.0457980568
H                66.2795618980       59.2059506542      217.8100747073
H                66.6243681922       63.9699256312      217.8881758257
H                64.7138130948       63.0638730179      215.3027045343
H                74.6816134895       63.0464773688      213.2312053739
