 199 
 
N                54.1953883928       49.3111431125      207.3420427555
C                55.1688948566       48.8278531387      206.3919824225
C                56.2597225032       48.0128309735      207.0382976945
O                56.5842890151       48.1387698649      208.2068428348
C                55.9327141449       50.0458913389      205.8634897924
C                55.4817839647       51.2047900386      206.7310999951
C                54.5536466523       50.6238144396      207.7988365546
H                54.6766162890       48.2508133505      205.6053041533
H                57.0067634854       49.8837312100      205.9364093794
H                55.6938621951       50.1986959360      204.8131398881
H                56.3147108688       51.7160577487      207.2065897130
H                54.9459158297       51.9420219957      206.1388053689
H                55.0629475817       50.5466497727      208.7645573219
H                53.6808359647       51.2609444070      207.9495454781
N                60.7285598933       47.3290255344      203.1293442732
C                59.9574911941       48.2916954684      202.3694717961
C                60.3462091019       49.7605177434      202.6212059549
O                60.3646247175       50.5710975982      201.6949398223
C                58.4791945447       48.0939611927      202.7174822249
C                57.9580562499       46.7282021866      202.3034049189
C                56.4646006329       46.5332428210      202.7350241687
O                55.9114813861       47.4954492581      203.3084291017
O                55.9562120228       45.4134837674      202.5103633701
H                60.2020578953       46.7758064003      203.7941353819
H                60.1123381599       48.1187716713      201.2952186843
H                58.3520009702       48.2293006434      203.7937051352
H                57.8711815626       48.8573761830      202.2293190840
H                57.9910402638       46.6083993904      201.2184511180
H                58.5333324932       45.9196907570      202.7445679783
N                60.5728919912       50.0723911251      203.9038582182
C                61.0005725895       51.3856915849      204.3572330283
C                62.3408139446       51.6828756523      203.7209048465
O                62.5575490324       52.7589068251      203.1743022186
C                61.0487019372       51.4639764070      205.8915216636
C                59.6072509620       51.3522237035      206.3948372029
C                61.6964630162       52.7621970892      206.3402966847
C                59.5238406573       51.1522804747      207.8919702034
H                60.5147175890       49.3401049904      204.6021619209
H                60.3028940044       52.1450347255      203.9831573917
H                61.6399228628       50.6166472204      206.2540801745
H                59.0620783248       52.2545808595      206.1115115234
H                59.1320191822       50.5037511893      205.9018029501
H                61.7306445256       52.8248259889      207.4239338135
H                62.7139036546       52.8483482584      205.9659333267
H                61.1332274793       53.6164122322      205.9706017518
H                58.4854941470       51.1000820264      208.2059897328
H                60.0151049426       50.2234265236      208.1678193359
H                60.0026506604       51.9625484458      208.4344223704
N                62.0122283337       52.3089888388      199.9671264465
C                61.5509835361       53.6862416870      199.8554983969
C                62.7406893395       54.6338407732      200.1136406125
O                63.1253548401       55.4319438604      199.2559088267
C                60.3955970582       53.9724028381      200.7941731543
C                59.9928467390       55.4277620657      200.6552762051
S                58.8615055959       55.9520961082      201.9792786776
C                60.1280344019       56.1278144576      203.2638501748
H                61.5144346350       51.7168205906      200.6228750720
H                61.2356650146       53.8765637605      198.8182399435
H                59.5465766920       53.3294398333      200.5611225275
H                60.7114518151       53.7623261750      201.8180713673
H                60.8581616095       56.0876021476      200.7031884646
H                59.4669428604       55.6048435736      199.7185471991
H                59.6238178870       56.4728051262      204.1624243370
H                60.6012003328       55.1697643243      203.4601987907
H                60.8618808558       56.8633168649      202.9511098751
N                55.0190531364       50.7756415086      194.5573516737
C                55.2618434800       50.2815032071      195.9054961436
C                55.7406749548       51.3433945933      196.9115279101
O                55.2020434210       51.5305544499      197.9962842415
H                55.7266534182       50.6517621199      193.8435603372
H                54.3164971599       49.8938992779      196.2920741893
H                56.0097820458       49.4907265425      195.8549806491
N                56.8363640387       51.9944535165      196.5050150677
C                57.4278573846       53.1007430112      197.2282489166
C                56.3328562828       54.1291729507      197.5861403535
O                56.0932065043       54.4059505045      198.7517536876
C                58.6154619011       53.6284509097      196.4014637611
C                59.6738674241       52.5399324659      196.2358688776
C                59.6240552232       51.7056694618      194.9224429076
O                59.0101248722       52.1037900336      193.8986701903
O                60.2663966096       50.6399202573      195.0191635482
H                57.1543592337       51.8776174522      195.5518628109
H                57.7934675746       52.7337081076      198.1988953565
H                58.2637689678       53.9378813383      195.4151411957
H                59.0317222937       54.4949588588      196.9174447596
H                60.6841493946       52.9410045507      196.2911966364
H                59.6005096361       51.8039222147      197.0399181557
N                53.2981270014       53.4874826717      198.0141666460
C                52.3303214338       52.9398536133      198.9763718273
C                52.9000048391       53.0649180966      200.4403178349
O                52.1964956965       53.4212486636      201.3946745622
C                51.9936051350       51.4890166836      198.6090372102
C                50.9414892472       51.3758728457      197.4882950014
C                50.9762519760       50.0204630563      196.7319735665
C                49.5581940096       49.4634696087      196.5661818846
N                49.4757098471       48.2391001631      195.7102755454
H                53.4555315311       52.9397368083      197.1732232349
H                51.4112334572       53.5566664332      198.9722140352
H                52.9344129262       51.0184508362      198.3157075262
H                51.6092633899       50.9982326727      199.5057637255
H                49.9530737440       51.5573441137      197.9238461622
H                51.0914560876       52.2020465889      196.7837695338
H                51.4571973090       50.1923145560      195.7676128862
H                51.5781427284       49.3256075323      197.3192701008
H                49.1384389443       49.2435672289      197.5481052242
H                48.9141382960       50.2335596160      196.1396843564
H                48.4635528789       48.0405620657      195.5785985604
H                49.8796463421       48.4242435093      194.7812999060
H                49.9534451038       47.4427837786      196.1644556096
N                54.1922220690       52.7126411102      200.5187993494
C                55.0399410367       52.7515731494      201.6956954282
C                55.0480388697       54.1998546271      202.2640004996
O                54.8227702454       54.4846286409      203.4420244840
C                56.5196831561       52.3551280460      201.4407849637
O                56.6888533463       51.0417669597      200.9233726656
C                57.2489463640       52.4260249518      202.7756525688
H                54.6191619098       52.3895076723      199.6538529022
H                54.6307568628       52.0876793538      202.4700932556
H                56.9381367834       53.0811478915      200.7262205686
H                57.6367542696       50.8585356104      200.9332909244
H                58.3056118417       52.2095765228      202.6309707737
H                57.1509752741       53.4053430960      203.2333868010
H                56.8353246499       51.6747504440      203.4452675021
N                55.3591052195       55.1249025270      201.3645061787
C                55.4343735015       56.5036761285      201.7782880605
C                54.1205484796       57.0055050051      202.3268899350
O                54.1045277958       57.8559683608      203.2072805930
C                55.7676402567       57.4380158057      200.6285180095
C                55.5146361204       58.8759193203      200.9487655806
C                54.7782178772       59.7399502892      200.1812169526
C                56.1698286583       59.6770158737      201.9290544751
N                54.9918790919       61.0347332453      200.5619672876
C                55.8032229068       61.0216319770      201.6617085508
C                57.0947425941       59.4139586764      202.9323008512
C                56.2570621168       62.0804262574      202.4410994986
C                57.5657652064       60.4725310846      203.6793449923
C                57.1207170366       61.7859232996      203.4708878947
H                55.4353136263       54.8840009297      200.3858335282
H                56.1803931835       56.5868749004      202.5768229105
H                56.8177723352       57.3099796871      200.3497752417
H                55.1486560729       57.1543242993      199.7722341973
H                54.1286656557       59.5118845566      199.3568040096
H                54.4662297081       61.8302375814      200.2248490796
H                57.4410177589       58.4064152719      203.1104754664
H                55.9468410346       63.0895335387      202.2150372374
H                58.2844980355       60.2965274140      204.4648545109
H                57.4926701887       62.5683819524      204.1154365889
N                53.0269485734       56.4815605157      201.7532311272
C                51.7191589590       56.9165298080      202.1869163708
C                51.4555319106       56.5885553968      203.6727679095
O                51.0792327980       57.4671747655      204.4530406787
H                53.0935051340       55.9693375050      200.8840370584
H                51.6078284506       58.0024212151      202.0778516982
H                50.9590175205       56.4157704676      201.5814619463
N                51.6653276165       55.2994981377      204.0108492979
C                51.7801442284       54.8314398119      205.3827110505
C                52.7110282141       55.7185107728      206.2308830078
O                52.3455873363       56.2316076823      207.2936436802
C                52.3471381893       53.4324067492      205.4207480040
C                51.3582337756       52.3932448112      204.9537506663
C                52.0429788038       51.0488552546      205.0472224178
C                50.1149171491       52.3044508014      205.8022769915
H                51.9838761591       54.6606039903      203.2891000297
H                50.8042666890       54.8802641419      205.8784608342
H                53.2430612784       53.4018211212      204.7984547793
H                52.6344427189       53.2227324854      206.4550989671
H                51.0782947673       52.6057483862      203.9171946412
H                51.3750077156       50.2516597544      204.7311310769
H                52.9268054644       51.0171021415      204.4127786229
H                52.3439026484       50.8550209513      206.0702375903
H                49.4230226845       51.5912646463      205.3631666377
H                50.3655781994       51.9620043324      206.8060799563
H                49.5924098429       53.2508517220      205.9088691414
N                53.9645552208       55.8467771229      205.7436614804
C                54.9312964603       56.5095668193      206.5945680799
C                54.4802916212       57.9147078289      206.9507927764
O                54.5543487408       58.3301465630      208.1110582794
C                56.3130674021       56.5610263088      205.9726530822
C                57.1982033618       57.4764533209      206.8082317496
C                56.8354751267       55.1413732622      205.9545925842
H                54.2523176286       55.4424292126      204.8627455814
H                54.9810927126       55.9627774381      207.5469704065
H                56.2358471759       56.9672950449      204.9582807686
H                58.2399618947       57.3878591422      206.5125618373
H                56.9081792469       58.5193262455      206.7037361337
H                57.1216015875       57.2197714854      207.8635385156
H                57.8297750302       55.1049031819      205.5176979627
H                56.8900622991       54.7620903919      206.9716324714
H                56.1767978688       54.5004112896      205.3786391842
H                53.3819733271       48.9909911434      207.1278964330
H                56.7563601147       47.3289797294      206.5037899220
H                61.1187355000       46.7451382485      202.5664600637
H                63.0674915112       50.9962153625      203.7418180148
H                61.9418231906       51.9028053991      199.1670901166
H                63.2180371717       54.6092643111      200.9920112885
H                54.2898085381       50.3730351880      194.2166018147
H                55.8108429173       54.5768173539      196.8601124378
H                53.0187018240       54.2958523372      197.7340594269
H                54.1169641795       58.5182313032      206.2410374763
