425
Properties=species:S:1:pos:R:3 pbc="F F F"
N      27.52600000      12.92100000       3.11400000 
C      27.77900000      11.63300000       3.71200000 
C      28.68500000      11.76200000       4.90000000 
O      28.45500000      11.09900000       5.92500000 
C      28.38600000      10.69700000       2.67900000 
O      27.38500000      10.41200000       1.69600000 
C      28.79700000       9.38400000       3.27500000 
H      27.70400000      13.04200000       2.14000000 
H      26.86700000      11.19700000       4.07600000 
H      29.22300000      11.19200000       2.21900000 
H      27.32400000      11.11500000       1.04700000 
H      29.12200000       8.72700000       2.48300000 
H      29.60900000       9.50600000       3.97600000 
H      27.96000000       8.93000000       3.78700000 
N      29.73700000      12.56600000       4.81200000 
C      30.64700000      12.66300000       5.92100000 
C      29.97000000      13.24700000       7.13900000 
O      30.23700000      12.82700000       8.27700000 
C      31.83700000      13.53500000       5.58900000 
C      32.65400000      13.05200000       4.40900000 
C      34.13300000      13.13800000       4.70800000 
N      34.51100000      11.92700000       5.42600000 
C      35.60500000      11.76000000       6.15000000 
N      36.40000000      12.77200000       6.44600000 
N      35.89400000      10.53400000       6.58200000 
H      29.92500000      13.05600000       3.96100000 
H      30.98000000      11.67600000       6.20400000 
H      31.49100000      14.54200000       5.41000000 
H      32.45900000      13.55500000       6.47500000 
H      32.40100000      12.03000000       4.15500000 
H      32.42800000      13.63700000       3.53300000 
H      34.71400000      13.20600000       3.81300000 
H      34.34000000      14.00200000       5.31800000 
H      33.96700000      11.11700000       5.23400000 
H      36.16700000      13.74400000       6.31100000 
H      37.21100000      12.59500000       6.99300000 
H      35.33200000       9.75700000       6.33000000 
H      36.67100000      10.37600000       7.17900000 
N      29.12000000      14.24700000       6.95000000 
C      28.44400000      14.84300000       8.07500000 
C      27.61700000      13.79000000       8.76500000 
O      27.54200000      13.76600000      10.01300000 
C      27.57100000      16.01100000       7.62700000 
C      28.42000000      17.17800000       7.13200000 
C      27.62300000      18.18300000       6.34200000 
N      26.58400000      18.77600000       7.16600000 
C      25.61300000      19.52900000       6.68100000 
N      25.46100000      19.68100000       5.37700000 
N      24.77000000      20.14100000       7.49700000 
H      28.87200000      14.52300000       6.02300000 
H      29.16600000      15.17800000       8.80000000 
H      26.92500000      15.66400000       6.83400000 
H      26.95900000      16.32400000       8.45500000 
H      28.89200000      17.66100000       7.98000000 
H      29.20600000      16.81200000       6.48700000 
H      28.27100000      18.95600000       5.95400000 
H      27.16800000      17.67400000       5.50400000 
H      26.63400000      18.64900000       8.17300000 
H      26.04200000      19.21000000       4.72300000 
H      24.75000000      20.27500000       5.01500000 
H      24.89000000      20.10700000       8.50500000 
H      23.99300000      20.63500000       7.12800000 
N      26.97200000      12.91400000       8.00700000 
C      26.19200000      11.85100000       8.59900000 
C      27.08000000      10.92100000       9.37700000 
O      26.69700000      10.48100000      10.48100000 
C      25.38300000      11.12600000       7.52200000 
C      24.77700000       9.82800000       8.03800000 
C      24.28900000      12.05400000       7.04100000 
H      27.04300000      12.97900000       7.01200000 
H      25.51500000      12.26700000       9.32300000 
H      26.05900000      10.90100000       6.70900000 
H      24.18900000       9.37700000       7.25200000 
H      25.53100000       9.12100000       8.34400000 
H      24.12600000      10.02600000       8.87800000 
H      23.71000000      11.58000000       6.25900000 
H      23.62000000      12.29200000       7.86100000 
H      24.69200000      12.97700000       6.65200000 
N      28.25800000      10.60400000       8.85900000 
C      29.17000000       9.75600000       9.58700000 
C      29.56000000      10.38600000      10.90600000 
O      29.63200000       9.70800000      11.95400000 
C      30.41800000       9.52600000       8.75600000 
C      31.48900000       8.72700000       9.48600000 
C      30.95900000       7.39100000       9.98900000 
C      32.67200000       8.52400000       8.55200000 
H      28.51200000      10.93400000       7.95100000 
H      28.68600000       8.82600000       9.82700000 
H      30.12300000       8.99600000       7.85900000 
H      30.81200000      10.48500000       8.45900000 
H      31.82800000       9.30200000      10.33500000 
H      31.76900000       6.79800000      10.39100000 
H      30.21900000       7.52400000      10.76100000 
H      30.50900000       6.83800000       9.17000000 
H      33.46600000       7.98500000       9.05200000 
H      32.36700000       7.95400000       7.68300000 
H      33.06600000       9.47600000       8.21400000 
N      29.85500000      11.67400000      10.90300000 
C      30.24300000      12.32600000      12.12200000 
C      29.09400000      12.30800000      13.10100000 
O      29.31700000      12.16000000      14.32300000 
C      30.69100000      13.74800000      11.81200000 
C      31.22800000      14.47000000      13.03700000 
C      32.50300000      13.88000000      13.55300000 
O      33.09000000      12.95300000      12.95600000 
N      32.99500000      14.38600000      14.67000000 
H      29.84000000      12.18500000      10.04300000 
H      31.03900000      11.78200000      12.59200000 
H      31.46200000      13.68600000      11.06100000 
H      29.86300000      14.30400000      11.40500000 
H      31.42700000      15.50400000      12.79000000 
H      30.50500000      14.47500000      13.83800000 
H      32.58600000      15.16700000      15.14400000 
H      33.84700000      14.01800000      15.02600000 
N      27.86400000      12.47000000      12.62600000 
C      26.72600000      12.45900000      13.51200000 
C      26.60700000      11.11000000      14.16000000 
O      26.38200000      11.00700000      15.38100000 
C      25.44900000      12.76700000      12.74700000 
C      25.28100000      14.23700000      12.40000000 
C      24.17000000      14.37500000      11.37500000 
C      24.96200000      15.05000000      13.64100000 
H      27.72500000      12.67300000      11.65800000 
H      26.87700000      13.16100000      14.31300000 
H      25.44900000      12.16500000      11.85000000 
H      24.60500000      12.45700000      13.34600000 
H      26.19900000      14.60500000      11.96300000 
H      23.98800000      15.41300000      11.14200000 
H      24.41800000      13.85600000      10.45900000 
H      23.25000000      13.95700000      11.76500000 
H      24.73400000      16.06900000      13.37500000 
H      24.10300000      14.63300000      14.15200000 
H      25.79400000      15.06600000      14.33200000 
N      26.73600000      10.04800000      13.37700000 
C      26.65200000       8.71800000      13.92800000 
C      27.69700000       8.55300000      15.00000000 
O      27.44000000       7.97900000      16.07200000 
C      26.83800000       7.68900000      12.82500000 
C      25.61100000       7.58200000      11.93800000 
C      25.86900000       6.85200000      10.64400000 
O      27.04500000       6.81500000      10.18700000 
O      24.87600000       6.34700000      10.02500000 
H      26.93400000      10.18000000      12.40600000 
H      25.70600000       8.57800000      14.42000000 
H      27.69200000       7.96600000      12.23000000 
H      27.04900000       6.72900000      13.27500000 
H      24.79800000       7.09500000      12.45400000 
H      25.27500000       8.56900000      11.65600000 
N      28.90600000       9.03400000      14.74300000 
C      29.98800000       8.86200000      15.67900000 
C      29.71000000       9.59900000      16.97000000 
O      29.85000000       9.05000000      18.08400000 
C      31.27600000       9.36900000      15.04600000 
O      31.54100000       8.60300000      13.86900000 
C      32.44400000       9.20400000      15.97800000 
H      29.08200000       9.47400000      13.86600000 
H      30.10000000       7.82300000      15.93300000 
H      31.14200000      10.40300000      14.77700000 
H      31.03700000       8.91200000      13.11300000 
H      33.35200000       9.48400000      15.46700000 
H      32.33200000       9.83300000      16.84900000 
H      32.51900000       8.17800000      16.30300000 
N      29.34400000      10.86700000      16.88700000 
C      29.09000000      11.59600000      18.10400000 
C      27.90900000      11.00900000      18.82100000 
O      27.91600000      10.89900000      20.06200000 
C      28.87700000      13.07900000      17.80600000 
C      28.48600000      13.82200000      19.07400000 
C      30.15000000      13.67000000      17.21400000 
H      29.21600000      11.30800000      15.99600000 
H      29.92900000      11.48700000      18.76900000 
H      28.07600000      13.16100000      17.08100000 
H      28.42200000      14.88000000      18.86700000 
H      27.53000000      13.49300000      19.45900000 
H      29.23300000      13.67300000      19.84100000 
H      30.01200000      14.72900000      17.03200000 
H      30.97100000      13.54600000      17.90700000 
H      30.40600000      13.19800000      16.27900000 
N      26.85000000      10.65900000      18.10400000 
C      25.65500000      10.22000000      18.78100000 
C      25.90900000       8.92000000      19.47400000 
O      25.40000000       8.69000000      20.58400000 
C      24.49900000      10.12300000      17.80400000 
C      23.18300000       9.66100000      18.42500000 
C      22.79100000      10.47700000      19.65100000 
C      22.10000000       9.74900000      17.35600000 
H      26.83200000      10.77000000      17.11000000 
H      25.41600000      10.92200000      19.55800000 
H      24.36000000      11.10400000      17.37400000 
H      24.77300000       9.45200000      17.00000000 
H      23.28400000       8.62600000      18.73200000 
H      21.80600000      10.18000000      19.99000000 
H      23.48600000      10.33000000      20.46300000 
H      22.75900000      11.53100000      19.40200000 
H      21.14500000       9.43300000      17.75200000 
H      22.00500000      10.77300000      17.01100000 
H      22.34400000       9.12600000      16.50900000 
N      26.68900000       8.02300000      18.88000000 
C      26.99600000       6.79100000      19.56900000 
C      27.68100000       7.07200000      20.88800000 
O      27.42300000       6.41900000      21.91200000 
C      27.88400000       5.92000000      18.69300000 
C      27.86700000       4.49200000      19.18000000 
C      28.75400000       3.57100000      18.39300000 
O      29.38000000       4.00800000      17.39500000 
O      28.77700000       2.35200000      18.79000000 
H      27.06200000       8.18400000      17.96400000 
H      26.08300000       6.27100000      19.81000000 
H      27.51200000       5.96600000      17.68100000 
H      28.88800000       6.31300000      18.68200000 
H      28.14900000       4.42300000      20.22200000 
H      26.86200000       4.09200000      19.11200000 
N      28.61100000       8.02100000      20.87800000 
C      29.32900000       8.34800000      22.07600000 
C      28.42800000       8.93700000      23.12500000 
O      28.57300000       8.65700000      24.33700000 
H      28.80700000       8.52600000      20.04100000 
H      29.78400000       7.47100000      22.50400000 
H      30.09800000       9.06300000      21.83200000 
O      33.63900000      11.03500000      11.31100000 
H      34.58000000      11.07500000      11.44700000 
H      33.22200000      11.74200000      11.80700000 
O      31.57700000       7.05700000      18.69900000 
H      32.42300000       7.45900000      18.86000000 
H      30.92700000       7.72300000      18.46600000 
O      28.20000000      16.32800000      11.07200000 
H      27.61800000      17.01700000      10.72700000 
H      27.93100000      15.45500000      10.80000000 
O      28.03100000      17.43900000      15.07600000 
H      27.77400000      17.69200000      15.96900000 
H      28.02700000      16.49000000      14.98600000 
N      20.04200000       6.22000000       6.95000000 
C      20.89600000       6.50700000       8.07500000 
C      20.39700000       7.75000000       8.76500000 
O      20.41400000       7.82600000      10.01300000 
C      22.34400000       6.67900000       7.62700000 
C      22.93000000       5.36000000       7.13200000 
C      24.19900000       5.54800000       6.34200000 
N      25.23200000       6.15100000       7.16600000 
C      26.36900000       6.61500000       6.68100000 
N      26.57700000       6.67100000       5.37700000 
N      27.32100000       7.04000000       7.49700000 
H      20.40500000       6.29600000       6.02300000 
H      20.82500000       5.71400000       8.80000000 
H      22.36600000       7.41200000       6.83400000 
H      22.92100000       7.05300000       8.45500000 
H      23.11200000       4.71000000       7.98000000 
H      22.22100000       4.86200000       6.48700000 
H      24.54400000       4.60000000       5.95400000 
H      23.98500000       6.19600000       5.50400000 
H      25.09700000       6.17100000       8.17300000 
H      25.87900000       6.40300000       4.72300000 
H      27.44700000       6.99000000       5.01500000 
H      27.23200000       6.95300000       8.50500000 
H      28.13800000       7.46500000       7.12800000 
N      19.13100000       8.19500000      12.62600000 
C      19.69100000       9.18700000      13.51200000 
C      18.58100000       9.96400000      14.16000000 
O      18.60500000      10.21100000      15.38100000 
C      20.59500000      10.13900000      12.74700000 
C      21.95300000       9.54900000      12.40000000 
C      22.62800000      10.44300000      11.37500000 
C      22.81700000       9.41900000      13.64100000 
H      19.37700000       8.21500000      11.65800000 
H      20.22300000       8.70500000      14.31300000 
H      20.07400000      10.43900000      11.85000000 
H      20.74900000      11.02500000      13.34600000 
H      21.81200000       8.57000000      11.96300000 
H      23.61800000      10.08100000      11.14200000 
H      22.05400000      10.48700000      10.45900000 
H      22.72600000      11.44800000      11.76500000 
H      23.81300000       9.10600000      13.37500000 
H      22.88400000      10.37100000      14.15200000 
H      22.41400000       8.69000000      14.33200000 
N      19.85700000      16.90200000       8.00700000 
C      21.16800000      16.75800000       8.59900000 
C      21.52900000      17.99200000       9.37700000 
O      22.10200000      17.88000000      10.48100000 
C      22.20000000      16.42000000       7.52200000 
C      23.62700000      16.54400000       8.03800000 
C      21.94400000      15.00800000       7.04100000 
H      19.76600000      16.93100000       7.01200000 
H      21.14600000      15.96300000       9.32300000 
H      22.05600000      17.11700000       6.70900000 
H      24.31200000      16.26000000       7.25200000 
H      23.86300000      17.55000000       8.34400000 
H      23.78100000      15.88100000       8.87800000 
H      22.64300000      14.74300000       6.25900000 
H      22.07200000      14.30900000       7.86100000 
H      20.94200000      14.89600000       6.65200000 
N      19.79500000      17.89600000      12.62600000 
C      20.37400000      16.91500000      13.51200000 
C      21.60200000      17.48800000      14.16000000 
O      21.80400000      17.34400000      15.38100000 
C      20.74600000      15.65600000      12.74700000 
C      19.55700000      14.77500000      12.40000000 
C      19.99300000      13.74400000      11.37500000 
C      19.01200000      14.09200000      13.64100000 
H      19.68900000      17.67400000      11.65800000 
H      19.69100000      16.69500000      14.31300000 
H      21.26700000      15.95700000      11.85000000 
H      21.43700000      15.08000000      13.34600000 
H      18.77900000      15.38700000      11.96300000 
H      19.18500000      13.06700000      11.14200000 
H      20.31800000      14.21900000      10.45900000 
H      20.81400000      13.15600000      11.76500000 
H      18.24300000      13.38600000      13.37500000 
H      19.80300000      13.55800000      14.15200000 
H      18.58300000      14.80500000      14.33200000 
N      22.45700000      18.13000000      13.37700000 
C      23.65100000      18.72300000      13.92800000 
C      23.27100000      19.71000000      15.00000000 
O      23.89700000      19.77400000      16.07200000 
C      24.44900000      19.39800000      12.82500000 
C      25.15600000      18.38900000      11.93800000 
C      25.65900000      18.97700000      10.64400000 
O      25.10300000      20.01400000      10.18700000 
O      26.59200000      18.37000000      10.02500000 
H      22.24400000      18.23600000      12.40600000 
H      24.24600000      17.97300000      14.42000000 
H      23.78200000      19.99800000      12.23000000 
H      25.17500000      20.06000000      13.27500000 
H      25.98400000      17.92800000      12.45400000 
H      24.46800000      17.60400000      11.65600000 
N      21.87100000      17.92300000      18.10400000 
C      22.84900000      17.10800000      18.78100000 
C      23.84800000      17.97800000      19.47400000 
O      24.30100000      17.65200000      20.58400000 
C      23.51100000      16.15500000      17.80400000 
C      24.56900000      15.24700000      18.42500000 
C      24.05800000      14.49900000      19.65100000 
C      25.03400000      14.26500000      17.35600000 
H      21.78400000      17.85200000      17.11000000 
H      22.36000000      16.55000000      19.55800000 
H      22.73100000      15.54400000      17.37400000 
H      23.95400000      16.72800000      17.00000000 
H      25.41500000      15.85200000      18.73200000 
H      24.80700000      13.79500000      19.99000000 
H      23.83800000      15.17500000      20.46300000 
H      23.16100000      13.94500000      19.40200000 
H      25.78500000      13.59500000      17.75200000 
H      24.19500000      13.67000000      17.01100000 
H      25.45100000      14.78700000      16.50900000 
N      36.76500000      18.68700000      19.27000000 
C      36.97500000      17.31500000      18.87300000 
C      35.74100000      16.78600000      18.18600000 
O      35.81700000      16.11300000      17.13900000 
C      37.33900000      16.51200000      20.10800000 
C      37.45100000      15.02100000      19.83200000 
C      36.38000000      14.18300000      20.50400000 
O      35.84300000      14.62000000      21.56500000 
O      36.12800000      13.06300000      19.97400000 
H      36.84300000      18.93200000      20.23500000 
H      37.76200000      17.26200000      18.14100000 
H      38.27300000      16.91500000      20.47200000 
H      36.59300000      16.67700000      20.86300000 
H      37.43400000      14.80800000      18.77700000 
H      38.40000000      14.64800000      20.20300000 
N      34.56900000      17.08500000      18.72600000 
C      33.34300000      16.64700000      18.11500000 
C      33.09400000      17.26800000      16.77100000 
O      32.28000000      16.71700000      16.00200000 
C      32.17100000      16.94100000      19.03700000 
C      31.97700000      15.81600000      20.03300000 
C      30.91000000      16.18100000      21.04600000 
N      31.43400000      16.78900000      22.26700000 
C      31.57800000      16.08800000      23.38200000 
N      31.68000000      14.76700000      23.30900000 
N      31.59500000      16.67900000      24.56700000 
H      34.53400000      17.60600000      19.57900000 
H      33.39700000      15.58900000      17.92300000 
H      32.34800000      17.87800000      19.54000000 
H      31.27200000      17.03500000      18.44700000 
H      31.67500000      14.92600000      19.49500000 
H      32.90500000      15.58900000      20.54200000 
H      30.22100000      16.88900000      20.61100000 
H      30.33100000      15.31700000      21.33400000 
H      31.57900000      17.76900000      22.29800000 
H      31.84500000      14.32700000      22.43800000 
H      31.32700000      14.20800000      24.06100000 
H      31.31400000      17.62700000      24.72600000 
H      31.80300000      16.15200000      25.38200000 
N      33.71600000      18.38900000      16.46100000 
C      33.53300000      19.04300000      15.19500000 
C      34.63600000      18.71600000      14.22600000 
O      34.65800000      19.27000000      13.11300000 
C      33.37300000      20.54000000      15.38500000 
C      32.11200000      20.84200000      16.16500000 
C      31.81100000      22.33100000      16.22900000 
C      30.55500000      22.55000000      17.03800000 
N      30.13400000      23.97700000      17.05600000 
H      34.24300000      18.86200000      17.16400000 
H      32.63500000      18.64900000      14.75200000 
H      34.23600000      20.92600000      15.91000000 
H      33.33800000      21.00100000      14.40900000 
H      31.27700000      20.33600000      15.69700000 
H      32.21700000      20.45300000      17.16700000 
H      32.64100000      22.86000000      16.68300000 
H      31.67900000      22.72100000      15.22900000 
H      29.73200000      21.99000000      16.63300000 
H      30.70100000      22.25800000      18.06400000 
H      29.30500000      24.05800000      17.67800000 
H      30.86800000      24.56300000      17.41100000 
H      29.89500000      24.29700000      16.13300000 
N      35.52800000      17.79500000      14.58300000 
C      36.53300000      17.33900000      13.66600000 
C      37.83500000      18.07600000      13.72200000 
O      38.73700000      17.73100000      12.92500000 
H      35.51000000      17.40300000      15.50300000 
H      36.75000000      16.30000000      13.86200000 
H      36.16300000      17.42500000      12.65600000 
H      26.65710556      13.13319054       3.21398814 
H      27.69629118       9.56510689      22.86026630 
H      19.75019925       5.37029306       7.00338952 
H      20.05099574       8.51707384       8.22474194 
H      19.37363808       7.37372486      12.90282829 
H      17.81144236      10.28936042      13.61052603 
H      19.33722088      16.21086149       8.25631352 
H      21.31031494      18.89619541       9.01011103 
H      18.96241310      18.09650410      12.90276190 
H      22.50078385      20.33156299      14.85707856 
H      21.04966716      17.72828822      18.41624939 
H      24.15489435      18.82717243      19.04420698 
H      37.36490119      19.21478632      18.85580178 
H      37.96206872      18.81714560      14.38120918 
