 447 
 
N                 2.3945854986       41.9258384773       73.0441978756
C                 1.3230953338       42.3431501767       73.9178757936
C                 0.1058499680       42.7476675935       73.0869571242
O                -1.0166993408       42.7048233355       73.5651944145
C                 1.7222655717       43.5005197588       74.8413254200
C                 2.1791260291       43.0810893528       76.2459026874
C                 1.0652207412       42.4999386195       77.1279625708
N                 1.4534424956       42.6110719386       78.5288565657
C                 0.6666192149       42.4443008406       79.5877419382
N                -0.6172914999       42.1332969379       79.4772276830
N                 1.1735178411       42.6247280953       80.8153829676
H                 3.1952043822       42.5364191937       72.9461836568
H                 1.0005257529       41.4730300618       74.5058184541
H                 2.5334668838       44.0455072934       74.3558736961
H                 0.8704804764       44.1765470568       74.9325786568
H                 2.9949064096       42.3640701719       76.1540866200
H                 2.5647349882       43.9799565280       76.7298937238
H                 0.1385911560       43.0571456645       76.9657130158
H                 0.8846764671       41.4483050844       76.8872801801
H                 2.4394002397       42.7521763378       78.6991897542
H                -1.0814298370       41.9767381931       78.5866288191
H                -1.1945132676       42.1398431713       80.3000367697
H                 2.1455767205       42.8527365251       80.9669635989
H                 0.5866422831       42.5513853990       81.6275876450
N                 2.2540578233       37.7916541278       79.7797807135
C                 3.4452682902       38.4998975064       80.1817556790
C                 4.6411501537       37.9320581749       79.4597749805
O                 4.8829649237       36.7285904323       79.4741551135
C                 3.7040561981       38.3236052806       81.6804811574
C                 2.6319095799       39.0746805997       82.4780968855
C                 5.1173502244       38.7986457274       82.0099613969
C                 2.3397753211       38.4172550314       83.8161500281
H                 2.1245656978       36.8504160351       80.1441925896
H                 3.2951908760       39.5544558978       79.9466718683
H                 3.6178714967       37.2577870412       81.9106632488
H                 2.9523450801       40.1062416555       82.6330237800
H                 1.7106316644       39.0812636541       81.8912137875
H                 5.2809745325       38.7375695601       83.0841169508
H                 5.8759238242       38.1852733145       81.5315470684
H                 5.2579334316       39.8325080413       81.7073857044
H                 1.5157436925       38.9200585663       84.3143875312
H                 2.0785773187       37.3697478241       83.6794628424
H                 3.2014514709       38.4678896193       84.4740739465
N                 5.4405699715       38.7752001702       78.8262695084
C                 6.6189379747       38.2560128495       78.1384808578
C                 7.8200331790       38.2700950666       79.1089589649
O                 8.2575595373       39.3024597528       79.6124861879
C                 6.7921215382       39.2329963378       76.9776398830
C                 6.3360507647       40.5680761350       77.5572299743
C                 5.2384478232       40.1916807531       78.5765610585
H                 6.4369583561       37.2278291447       77.8227531443
H                 7.8195291885       39.2634627169       76.6317087413
H                 6.1384299153       38.9335403155       76.1578473941
H                 7.1550296569       41.0562689606       78.0815935115
H                 5.9628391299       41.2422603492       76.7910839233
H                 5.3489843697       40.7727571156       79.4940018112
H                 4.2424023268       40.3496133206       78.1537573405
N                 3.9940574451       34.1437921023       79.2747052945
C                 3.4334413499       33.4823519346       80.4206992111
C                 2.0278154504       34.0050469061       80.8116599112
O                 1.7662511284       35.2054519726       80.8905465345
C                 4.3905469449       33.6194182649       81.6541076445
C                 5.2706919045       32.3820997217       81.8072886590
C                 5.3437867967       34.8036136911       81.5763712873
H                 4.3484113155       35.0874637309       79.3947766129
H                 3.3531526386       32.4304034233       80.1464978127
H                 3.7568168671       33.7342869740       82.5425514580
H                 5.9721046823       32.5267536674       82.6254926390
H                 4.6861635940       31.4961719577       82.0257486902
H                 5.8482093465       32.2220977552       80.9008351718
H                 5.8696307453       34.8728629063       82.5240125666
H                 6.0608872455       34.6499628700       80.7758446269
H                 4.8283478117       35.7395486939       81.4132021632
N                 1.0825230832       33.0679223378       81.0783363275
C                -0.1727831901       33.4900185362       81.7136828315
C                 0.0629874439       34.4250067760       82.9120852030
O                 0.9886342930       34.2505136144       83.6964146130
C                -0.8114961104       32.1927083446       82.2693628429
C                -0.0275217203       31.0539116756       81.6290916454
C                 1.3464201501       31.6710032966       81.4213637891
H                -0.8046377479       34.0022067531       80.9847385284
H                -0.6901632109       32.1738535277       83.3534273200
H                -1.8802808712       32.1723878337       82.0840823528
H                 0.0073083663       30.1717997314       82.2620099474
H                -0.4628768187       30.7632463728       80.6744307510
H                 1.9199678775       31.6436264392       82.3557243986
H                 1.9180788436       31.1718276039       80.6528445266
N                -0.8717498341       35.3724503985       83.1023664528
C                -0.8531464595       36.2523147677       84.2629925708
C                -0.5953353210       35.4536876056       85.5345773703
O                 0.1641225144       35.8592558315       86.4079255948
C                -2.1794570929       37.0263499097       84.4680615070
C                -2.0817135257       38.5579591547       84.3065328788
C                -2.7978983781       39.0998112314       83.0611562657
O                -3.8393380739       38.6389955479       82.6297860890
N                -2.2133220005       40.1739036697       82.4929681558
H                -1.6312154368       35.4937280775       82.4482510866
H                -0.0124361283       36.9494809444       84.1541744717
H                -2.9240391422       36.6588401985       83.7569992995
H                -2.5586826430       36.7990168876       85.4648303913
H                -2.5723420056       39.0384040023       85.1552808060
H                -1.0410125239       38.8776833354       84.2933783523
H                -1.3569483888       40.5590185556       82.8492378610
H                -2.6632950924       40.5888870353       81.6936175564
N                -1.3299583462       34.3583850752       85.7016517117
C                -1.5143217449       33.8103303075       87.0269879580
C                -0.8648046690       32.4444355331       87.1991612722
O                -1.2785572276       31.5913573166       87.9692913105
C                -2.9931855933       33.8173933964       87.4715400883
C                -3.9737594116       33.8466722046       86.2892742493
C                -3.6873820558       32.6348686939       85.3648216734
O                -2.9878357390       32.8716091125       84.3394452381
O                -4.1438699009       31.5356498709       85.7108181295
H                -1.9329406015       33.9473780713       84.9632916604
H                -0.9372139604       34.4492677917       87.7137184675
H                -3.1648923670       32.9038560614       88.0450520235
H                -3.1837419768       34.6728500107       88.1222186667
H                -4.9918115734       33.7577880035       86.6673894644
H                -3.8791762986       34.7695890583       85.7168769401
N                 0.2798678376       32.3346335053       86.5231905961
C                 1.2311505871       31.2590904341       86.7295619143
C                 2.1281331596       31.6149013773       87.9341769727
O                 2.6473136298       32.7305653249       88.0078735887
C                 2.0897971028       31.1667705618       85.4741516685
C                 2.8991572779       29.8817446111       85.3331448884
C                 1.9961457163       28.7027154883       84.9797446027
C                 3.9435409771       30.0946728663       84.2393264129
H                 0.4938303207       33.0763406255       85.8689952376
H                 0.6735710026       30.3442540821       86.9384093859
H                 1.4255822091       31.2721625150       84.6140948526
H                 2.7584846924       32.0300711117       85.4797884347
H                 3.4069993945       29.6767728670       86.2803067093
H                 2.5863610721       27.8074500312       84.8032580807
H                 1.3002075621       28.5013685732       85.7880288872
H                 1.4205492592       28.9222402667       84.0831171778
H                 4.5606399272       29.2046846907       84.1363088581
H                 3.4459025533       30.2758844824       83.2915586101
H                 4.5871420941       30.9356965821       84.4782090543
N                 2.2823528041       30.6562657769       88.8620757634
C                 3.2362335594       30.7598304837       89.9558229656
C                 4.6587530770       30.5366568547       89.4239649700
O                 4.9031322022       29.8413243578       88.4401785761
C                 3.0364363863       29.7761547718       91.1301384664
O                 3.9541710888       28.6943858159       91.0150890012
C                 1.6142897112       29.2572392871       91.2559133035
H                 1.9339875126       29.7285542787       88.6160213946
H                 3.1762396887       31.7825100860       90.3322931953
H                 3.2959640853       30.3395549695       92.0408060553
H                 3.6870086583       28.0331966463       91.6720050297
H                 1.5096458225       28.6686933131       92.1642954974
H                 0.9259741237       30.0964794375       91.3090354623
H                 1.3422073310       28.6501322933       90.4006120034
N                 5.6188048661       31.1314290047       90.1315569866
C                 7.0157226686       30.9964189874       89.7625019560
C                 7.5238161880       29.5773368148       89.9430566088
O                 8.5442432799       29.2214543345       89.3663684225
C                 7.8704109777       31.8524155885       90.6634284223
C                 7.9653557110       33.2775627776       90.1981235181
S                 9.4137990958       33.5603882833       89.1854318869
C                10.6355282806       32.3917888209       89.8269554905
H                 5.3459854570       31.8280659333       90.8144108925
H                 7.1592214128       31.2679887824       88.7094262990
H                 7.4099534493       31.8386075217       91.6588068803
H                 8.8490712273       31.3957480689       90.7825163014
H                 7.1002514376       33.5805488544       89.6091402203
H                 8.0409533594       33.9489522996       91.0583856557
H                11.5743936980       32.7150292500       89.3857730011
H                10.6976226031       32.4695671303       90.9080809876
H                10.4208875355       31.3766324886       89.5054183141
N                 6.4939181737       28.0516374498       86.8855992341
C                 7.3895231563       28.5635543138       85.8833948316
C                 8.7120161748       27.8136859109       85.8749573774
O                 9.2184499935       27.3990208396       84.8300148962
C                 7.7213551124       30.0420815508       86.0224093472
C                 8.3371082243       30.5636245983       84.7353677174
C                 7.8504915905       30.2174677140       83.4590940117
C                 9.4067850007       31.4475025200       84.7832472015
C                 8.4179590225       30.7482496842       82.3199566300
C                 9.9400168717       32.0133541706       83.6160690190
C                 9.4612977164       31.6624018775       82.3773229186
H                 5.9431504892       28.7079780486       87.4329675057
H                 6.9294627717       28.3802783706       84.9037847938
H                 6.7843814263       30.5646749269       86.2199892897
H                 8.4022721418       30.2132290120       86.8553837629
H                 7.0052137420       29.5574849969       83.3499275268
H                 9.8187459591       31.7413991124       85.7357984917
H                 8.0336742237       30.4565176521       81.3532022925
H                10.7565775264       32.7109116160       83.7188583380
H                 9.8682708150       32.0790108539       81.4706863613
N                15.0146488689       37.1433440075       89.5922609144
C                14.5086082488       38.2208588717       88.7640671225
C                15.6532156605       39.2151953008       88.6260179371
O                16.3536619571       39.5478135556       89.5812383772
C                13.1850040942       38.7625386772       89.2826880994
C                12.7936118112       39.9814426231       88.4625738599
C                12.0973765240       37.6861205167       89.1936535573
H                14.8251474771       37.1628961829       90.5932153647
H                14.3365227848       37.7994960835       87.7654038561
H                13.3107245070       39.0519265841       90.3308081676
H                11.8041887016       40.3159855214       88.7546859236
H                13.4846237123       40.8057647250       88.6116763361
H                12.7840300194       39.7359292984       87.4023876342
H                11.1704896539       38.0799393210       89.5942013070
H                11.9364911557       37.4176293337       88.1526511505
H                12.3840478626       36.7958181993       89.7447562456
N                12.7529808490       35.5878677092       94.9742672132
C                11.3908220521       36.0640901760       95.0087865987
C                10.5290653576       34.9946565273       95.6231728092
O                10.9373967682       33.8627816514       95.8556296280
C                10.8523503202       36.3903621675       93.5879051854
C                11.6449153185       37.4834729401       92.8680814389
C                10.8128335115       35.1316513126       92.7411493892
H                12.9361423269       34.7951221128       94.3751454222
H                11.3835099672       36.9694993030       95.6234933921
H                 9.8310619400       36.7590113990       93.7194553360
H                11.1609392850       37.7171750164       91.9254672217
H                11.6794664041       38.3920096592       93.4666915910
H                12.6653506715       37.1740218321       92.6643440495
H                10.3457288236       35.3502561607       91.7840158683
H                11.8174582403       34.7656198541       92.5362172934
H                10.2454952001       34.3411839962       93.2276881037
N                 4.5122957240       33.3396907104       94.0947921943
C                 3.9299191153       34.5178996584       93.4779338994
C                 3.4145942598       34.1773019974       92.0811654651
O                 3.8780107551       33.2121265561       91.4762332952
C                 4.9890400180       35.6000639196       93.3032529239
H                 5.5223616061       33.2565440350       94.0752589638
H                 3.0884542820       34.8639022835       94.0875077176
H                 4.6479611391       36.3378890219       92.5847851301
H                 5.1698146793       36.1073323349       94.2479936134
H                 5.9150924472       35.1479380396       92.9593184128
N                 2.5172383574       35.0284485365       91.5845575206
C                 2.0819335045       34.9873555051       90.2107227730
C                 2.9724953929       35.8683436640       89.3358018084
O                 3.6124334875       36.8146386447       89.7888019178
C                 0.6436920433       35.5342990010       90.0342183498
O                 0.5896782114       36.8832766590       90.4503690308
C                -0.3861666465       34.6781884053       90.7676711333
H                 2.1406544531       35.7589862350       92.1957278952
H                 2.1403229616       33.9544500751       89.8564674387
H                 0.4217194026       35.5510814473       88.9604638990
H                 0.6943090077       36.8888094618       91.4253229528
H                -1.3783025117       35.0955558017       90.6189335443
H                -0.3723035439       33.6593204091       90.3911614352
H                -0.1667019872       34.6727437502       91.8337078503
N                 2.9015167135       35.5534510175       88.0425380045
C                 3.6357856439       36.2853144082       87.0386847811
C                 3.1348932393       37.7151952709       86.9865047207
O                 3.9092572832       38.6458089485       86.8092992671
C                 3.5428157463       35.5825485677       85.7007147338
C                 4.3581605270       34.3067595638       85.7362797136
S                 6.1008337299       34.7307788886       86.0319400056
C                 6.7255312470       33.0505149501       86.0889780382
H                 2.4679546153       34.6770081669       87.7854250324
H                 4.6980314572       36.3439826457       87.3150314551
H                 2.5018616883       35.3553228635       85.4603981440
H                 3.9461045385       36.2387042492       84.9286394173
H                 4.0347539170       33.6511888595       86.5454960321
H                 4.2977302346       33.7806164498       84.7828362638
H                 7.7537421972       33.0921044027       86.4317166064
H                 6.1107993501       32.4925258909       86.7924800807
H                 6.6821960543       32.6126517254       85.0956544422
N                 1.8300160295       37.8681532337       87.1584857205
C                 1.2010346644       39.1668997420       87.2687935959
C                 1.9942655184       39.9634271461       88.3107758092
O                 2.5354375371       41.0248120811       88.0306081410
C                -0.2615053168       38.9739456677       87.6511272022
H                 1.2213096415       37.0593163107       87.0955937508
H                 1.2915060333       39.7146418071       86.3218080905
H                -0.7664483835       39.9336101073       87.6905049454
H                -0.7413926632       38.3386489200       86.9121553900
H                -0.3414748124       38.4848101175       88.6184148678
N                 2.0153696383       39.4002429114       89.5226389292
C                 2.7921372435       39.9402618032       90.6091938467
C                 4.2221845824       40.2563184712       90.1426543462
O                 4.6829382796       41.3900608688       90.2601426216
C                 2.7385490843       38.9797929180       91.8086065582
C                 1.3915104802       39.0731949197       92.5319348315
C                 1.0980385701       37.9891523241       93.6217441736
O                 1.1875574597       36.7762604279       93.2974615482
O                 0.7262598939       38.4106095567       94.7252352158
H                 1.6077534004       38.4831431285       89.6697075375
H                 2.3704347432       40.9114159816       90.9107285552
H                 2.9159621707       37.9650975142       91.4542483620
H                 3.5430418598       39.2341234679       92.5043743399
H                 1.3224859828       40.0350741466       93.0347940497
H                 0.5843027126       39.0049845982       91.7981981917
N                 4.9262778997       39.2789829285       89.5803828874
C                 6.3123049536       39.5376738898       89.2364792270
C                 6.4526575631       40.7050424646       88.2557376605
O                 7.4269362946       41.4527514423       88.2838232403
C                 6.9921548704       38.3196724450       88.6008089142
C                 6.6642007364       37.0151338527       89.3302991981
C                 8.5023465993       38.5377596324       88.6103678571
C                 6.8083260725       37.0978326250       90.8488847445
H                 4.5559125201       38.3386217736       89.5315389049
H                 6.8575615244       39.8321274379       90.1443252610
H                 6.6412790943       38.2268943042       87.5672988603
H                 5.6531783291       36.6917585284       89.1026351531
H                 7.3364857693       36.2444631225       88.9465953041
H                 8.9988530413       37.6781974393       88.1669426062
H                 8.7776938152       39.4217845263       88.0421177814
H                 8.8597939661       38.6653460394       89.6275900869
H                 6.6412464692       36.1095392905       91.2616706004
H                 7.8045662398       37.4207707101       91.1373515794
H                 6.0813188016       37.7751934751       91.2873613937
N                 5.5077077394       40.8153944505       87.3246436442
C                 5.5611908560       41.7848300379       86.2389346660
C                 5.3182678750       43.1973940071       86.7677786875
O                 6.0052071608       44.1590701350       86.4127550922
C                 4.4964698696       41.4056916775       85.1914901484
C                 4.6342176553       42.1724750585       83.9016725628
C                 5.7645886101       41.9812006364       83.1143904230
C                 3.6561828881       43.0542756900       83.4602849920
C                 5.9266118732       42.6587448760       81.9250382303
C                 3.8155463488       43.7554052183       82.2791067502
C                 4.9618083329       43.5753934572       81.5046719289
O                 5.0950833032       44.2879757133       80.3621060521
H                 4.7559317734       40.1354143763       87.2964500606
H                 6.5674513715       41.7715540261       85.8010065832
H                 4.6152758716       40.3382073141       84.9957532400
H                 3.5114662359       41.5550387966       85.6346383931
H                 6.5204428842       41.2876991300       83.4444300109
H                 2.7729226005       43.2051925383       84.0602749535
H                 6.8001844575       42.4808947158       81.3186766261
H                 3.0960741431       44.4984801699       81.9725089804
H                 5.9370540787       44.0281901562       79.9312358642
N                 4.2672224536       43.2886282181       87.5747730381
C                 3.9505798638       44.4562399977       88.3807557000
C                 5.2408170046       44.9878161734       89.0160363579
O                 5.6395705173       46.1298549262       88.8240102170
C                 2.9040208024       44.0574356262       89.4256002785
C                 2.6853619613       45.1658949594       90.4460567729
C                 1.3651757366       45.0242272807       91.2016556879
N                 1.0069246592       43.6807684495       91.6525011353
C                 1.3201316272       43.1386509874       92.8363306338
N                 0.4454664854       42.2738202759       93.3799743381
N                 2.4171610608       43.4777320260       93.4922320679
H                 3.7806389539       42.4329147104       87.8262025526
H                 3.5410509037       45.2477399885       87.7402990650
H                 1.9778887202       43.8199184716       88.9003840247
H                 3.2431825100       43.1579054344       89.9396956818
H                 3.5234978484       45.1714012684       91.1370158578
H                 2.6605195667       46.1361063171       89.9488736747
H                 1.3930834925       45.6853249001       92.0708396944
H                 0.5517777582       45.3399142356       90.5479821932
H                 0.1775204145       43.3032305378       91.2176578701
H                -0.4300447401       42.0525970663       92.9357020129
H                 0.6672406378       41.7826318245       94.2303983635
H                 3.2688296208       43.8533012585       93.0163718868
H                 2.6219569283       43.0055539895       94.3586542055
N                 5.8959877748       44.0659576564       89.7097514302
C                 6.9611491959       44.3753839561       90.6200548499
C                 8.3509532719       44.5511940808       89.9923317876
O                 9.1821818646       45.2004233297       90.6110172959
C                 6.9568611150       43.3166966707       91.7143810206
C                 5.6812814876       43.3207843587       92.6309459461
O                 4.7776213708       44.1473752683       92.3780516341
O                 5.6558642763       42.4924151342       93.5563767233
H                 5.4662660221       43.1594677480       89.8536438240
H                 6.7508984918       45.3527198099       91.0839447359
H                 7.0113967058       42.3217407835       91.2699539884
H                 7.8219871713       43.4337979071       92.3702087573
N                 8.5698902390       44.0807412443       88.7373297588
C                 9.9299881673       44.1064320912       88.2137800832
C                10.0354024307       44.2120612888       86.6759256624
O                11.0875981926       43.9120868943       86.1127021386
C                10.7785053579       42.8654834149       88.6296641920
C                10.6194584478       42.4004471446       90.0516694258
C                 9.5797786682       41.5310795565       90.3794719542
C                11.5168124744       42.7411820688       91.0535506054
C                 9.3973506694       41.0799463720       91.6661002844
C                11.3348706521       42.3056850257       92.3589810497
C                10.2330017761       41.5234386085       92.6949201466
O                 9.9002489769       41.2059120504       93.9898428388
H                 8.0144209294       43.2817339990       88.4337926994
H                10.4027146498       45.0058661476       88.6277590830
H                10.4761922152       42.0502867904       87.9665357350
H                11.8223492467       43.0942256727       88.4164987566
H                 8.9029016828       41.2225117481       89.6032301166
H                12.3617368589       43.3712714436       90.8165148277
H                 8.5717298054       40.4348771512       91.9279040370
H                12.0046395899       42.6412301254       93.1388516339
H                10.5310706251       41.6023026925       94.6041860762
N                 8.9706091395       44.6348886780       85.9668803992
C                 9.1071979858       44.7999535831       84.5096418726
C                10.1993613418       45.8303844028       84.1673197959
O                10.3056217609       46.9029988680       84.7533561229
C                 7.7622528982       45.1082368352       83.8274306419
C                 7.5393859499       46.5350476502       83.3024944723
C                 6.3082908494       47.1966723385       83.9050343655
C                 6.5277149622       47.5359830192       85.3869574730
N                 5.5168036102       46.8633158338       86.2453006965
H                 8.0974294818       44.8402860126       86.4331140877
H                 9.4911522144       43.8440692894       84.1304928748
H                 7.6817384749       44.4297850114       82.9774145275
H                 6.9739757259       44.8242986124       84.5250624669
H                 8.4076429705       47.1668973877       83.4768279350
H                 7.4301079478       46.4966361869       82.2173037166
H                 6.1005851273       48.1044241124       83.3403315311
H                 5.4601811659       46.5215693629       83.7799794406
H                 7.5255022076       47.2209883334       85.6923768145
H                 6.4583733302       48.6118944644       85.5430802244
H                 5.6375082272       47.1093543516       87.2486665821
H                 4.5770208422       47.1357972023       85.9299977583
H                 5.6339538557       45.8165182947       86.1945955924
N                 9.0107175654       46.3430991192       78.0471450955
C                 7.9896448997       45.5639200688       78.7057342475
C                 8.3722339429       44.1307193726       79.0320666343
O                 7.5183095983       43.4017250858       79.5404260876
H                 8.7546194507       46.8510669683       77.2163144805
H                 7.7600539578       46.0219070393       79.6794151590
H                 7.0785081513       45.5557753634       78.1078541502
N                10.1260831460       41.3268944522       81.4504754774
C                10.7654393561       41.0715281411       82.7437689924
C                11.8837792737       40.0392109785       82.5379533245
O                11.6594691666       38.9391877916       82.0441303889
C                 9.7760971066       40.5742408415       83.8018761929
C                 8.7527983092       39.6129155480       83.2324406503
C                10.5731891618       39.8951597207       84.8953605434
H                 9.7242961976       40.5249830388       80.9786840643
H                11.2060826462       42.0201387447       83.0685647221
H                 9.2677845701       41.4508531028       84.2190389716
H                 8.1070270197       39.2519440365       84.0286458328
H                 8.1405862051       40.0787619962       82.4652566193
H                 9.2635110038       38.7607179740       82.7914414962
H                 9.9170642406       39.6135808636       85.7169532122
H                11.0603575195       38.9924985698       84.5348597503
H                11.3344392789       40.5621831359       85.2994819072
H                 2.7325770036       41.1442214507       73.3354650490
H                 0.2243207733       43.0512593079       72.1415488847
H                 1.5272549042       38.2520929557       80.0438897870
H                 8.2765150527       37.4142079430       79.3520258915
H                 4.6938576665       33.6692097127       78.9664015390
H                 7.0260634908       28.9389394512       90.5301605677
H                 5.8855140943       27.5133964257       86.4981188137
H                 9.1963574374       27.6445060609       86.7333231035
H                14.6697022524       36.3610155653       89.3112377117
H                15.8573174910       39.6222055042       87.7356892690
H                13.2941224354       36.2461245997       94.6846750004
H                 9.5782303963       35.1937019521       95.8604359441
H                 4.2867177199       33.3139509272       94.9656837074
H                10.8590572423       45.6371799085       83.4410461958
H                 9.3256426019       46.9666108936       78.6146442485
H                 9.2957350750       43.8022500168       78.8339415694
H                 9.4506592616       41.9116311533       81.5594964234
H                12.8213936912       40.2570682631       82.8089097928
