 494 
 
N                20.7191377246       39.1941284173       75.9183593088
C                19.6360757036       39.7552567833       75.1404203891
C                19.4730467520       41.2676566373       75.3525427968
O                18.9590737039       41.9811140477       74.5105488925
C                18.3587351306       38.9770982354       75.4833073352
C                17.1665234033       39.3587509156       74.6554695591
C                16.1919853095       40.1965903698       75.1771958803
C                16.9859747159       38.8213412629       73.3879161096
C                15.0476969771       40.4918272748       74.4598435520
C                15.8361160413       39.1050811184       72.6713474554
C                14.8649534171       39.9405684200       73.2026761282
H                20.4821288285       38.5067399602       76.6467618936
H                19.8656203663       39.6171348104       74.0772473120
H                18.5877388169       37.9179620558       75.3436304069
H                18.1387396189       39.1122239674       76.5465732922
H                16.3050823579       40.5736660596       76.1820514465
H                17.7284788945       38.1473387065       72.9909801066
H                14.2921593968       41.1253941188       74.8965034168
H                15.6757731988       38.6509298895       71.7066526564
H                13.9668385847       40.1577110942       72.6441455318
N                19.9753241502       41.7595276389       76.4995900723
C                20.0817829336       43.1915714312       76.7204623812
C                20.9558343598       43.8722253729       75.6420612884
O                20.7145513685       45.0106205064       75.2762096561
C                20.6959723526       43.4875714307       78.0970493305
C                19.7151426540       43.4071548969       79.2734540094
C                18.8149703361       44.6433168953       79.3735615233
C                17.9712303292       44.6063874552       80.6465891042
N                17.2334618566       45.8750447672       80.8545104415
H                20.3055402111       41.1331235203       77.2197013294
H                19.0888019049       43.6486936734       76.6397408974
H                21.5090415803       42.7787216509       78.2656638343
H                21.1323719386       44.4871685423       78.0720391293
H                19.1075231211       42.5044011913       79.2075132501
H                20.3006482172       43.3276580714       80.1900040961
H                19.4498040519       45.5299668463       79.3943901354
H                18.1531903844       44.6943517444       78.5096937412
H                17.2426525679       43.7952624549       80.6016081452
H                18.6011791657       44.4379741003       81.5199793454
H                16.4576454456       45.7558775615       81.6128509662
H                17.8499896929       46.6379674108       81.1463812052
H                16.7114223565       46.1602519262       80.0188957713
N                17.7372576431       49.3116708903       72.7058097515
C                16.3883432137       49.3972024357       73.2584343212
C                15.3413528242       49.3300748029       72.1451187833
O                14.4832626639       48.4539903328       72.1396564567
C                16.2446040015       50.6840355499       74.0859781626
C                14.7960155323       51.0973587611       74.3914692481
C                14.0068610645       49.9940411316       75.0891527376
C                14.8148503087       52.3487782100       75.2689159732
H                18.4879007135       49.6286870628       73.3022682873
H                16.2006049187       48.5245053472       73.8979689592
H                16.7649238327       50.5485749473       75.0352411760
H                16.7196019311       51.5145323803       73.5604365302
H                14.2847808503       51.3560624857       73.4577675567
H                12.9950636765       50.3381055577       75.3004349468
H                13.9401577137       49.0952155619       74.4815530158
H                14.4715879286       49.7442369454       76.0409221386
H                13.8059898623       52.7059049706       75.4661220337
H                15.2784046508       52.1442762477       76.2317071418
H                15.3552132684       53.1653984054       74.7948054900
N                14.0576634569       45.9948185134       70.4103823389
C                13.2030062617       45.1423859508       71.2114613310
C                11.9358028416       45.8341794797       71.7015942343
O                10.9000717084       45.2040552966       71.8946166244
C                13.9734778635       44.5274534108       72.3880291499
C                14.2258756673       45.4763584030       73.5703454717
C                15.6582942542       45.3277172206       74.0805248514
N                15.8094779877       45.9391975990       75.3847507497
C                16.9692651472       46.2095014590       75.9643862752
N                18.1228121096       46.1598422213       75.3160775571
N                16.9608652031       46.4848184468       77.2882092171
H                14.6980392200       46.6129545479       70.8932973316
H                12.8676567470       44.3335603542       70.5486573366
H                13.4090488217       43.6586827494       72.7225703808
H                14.9235830183       44.1740126306       71.9954209695
H                14.0637285796       46.5124633734       73.2792507601
H                13.5279287686       45.2634368988       74.3827387567
H                15.9105206546       44.2638959853       74.1560900119
H                16.3354856120       45.8210359200       73.3804702694
H                14.9880110416       45.9589882408       75.9932042800
H                18.1850830584       46.0629974345       74.3071835080
H                19.0027199092       46.3148367812       75.7874212114
H                16.0440962027       46.5915574526       77.7074062249
H                17.6931851405       47.0772281484       77.6499921595
N                12.0345458085       47.1460499286       71.9112706658
C                10.8956068939       47.9277746200       72.3341989913
C                 9.6995718154       47.5844734656       71.4365152177
O                 8.5751529841       47.3865185227       71.8870545385
C                11.2660845242       49.4078866907       72.2502348817
C                10.1370376508       50.3234926367       72.7182963045
C                 9.8026786234       50.0325142210       74.1712764205
O                10.4507876572       50.4878972984       75.1010235952
N                 8.7569652264       49.2062438919       74.3474841709
H                12.9067133761       47.6448084225       71.7700553429
H                10.6234352858       47.6600419088       73.3647951890
H                12.1407271384       49.5807937714       72.8794610008
H                11.5199427228       49.6434829547       71.2145741555
H                10.4679033435       51.3600068641       72.6497133474
H                 9.2533516649       50.1906309876       72.0938573733
H                 8.3033577203       48.7531684835       73.5672734516
H                 8.4577952345       48.9927004641       75.2852532761
N                 9.2374107524       44.7919856254       69.6747886659
C                 8.8253470116       43.4106237785       69.8682109345
C                 7.8862028254       43.2683110138       71.0661736404
O                 6.9195251136       42.5162267891       71.0478810353
C                10.0656433400       42.5247930950       70.0220900465
C                 9.7500530145       41.0504863989       69.8155561875
C                11.0198962679       40.1743369217       69.5741781204
O                10.7757454358       39.0206437193       69.1433633427
O                12.1369618828       40.6384184016       69.8189337870
H                10.2267110551       44.9667904368       69.5752029230
H                 8.2537822886       43.0962687273       68.9821947553
H                10.7877805175       42.8298666030       69.2592691619
H                10.5176449138       42.6981602244       70.9993843281
H                 9.2173668382       40.6404241294       70.6760226870
H                 9.1052440695       40.9261398850       68.9425514193
N                 8.2446744082       43.9900483172       72.1273354668
C                 7.4247346663       44.0787952283       73.3158341166
C                 5.9864853046       44.4305577747       72.9288714503
O                 5.0256736389       43.7396234255       73.2376500301
C                 7.9859623305       45.1533251118       74.2539141280
C                 7.0324250360       45.3660620580       75.4271845899
C                 9.3770854924       44.7618340236       74.7425766044
H                 9.0520611190       44.5966666640       72.0595602574
H                 7.4017455662       43.1040045849       73.8209839495
H                 8.0682806538       46.0821569825       73.6814200988
H                 7.3199786450       46.2509720377       75.9893830693
H                 6.0145293696       45.5120559745       75.0781913516
H                 7.0560186855       44.5038203592       76.0894759802
H                 9.7886722004       45.5543298935       75.3649378277
H                 9.3427701173       43.8515501561       75.3365084037
H                10.0566045945       44.6146323189       73.9089466561
N                 2.1936570910       37.6834054333       79.7118814343
C                 3.3521833112       38.3908404286       80.2243146495
C                 4.6215680260       37.8892368944       79.5384154371
O                 4.9308381744       36.6972648753       79.5497283928
C                 3.4790564432       38.1896359547       81.7472417924
C                 2.3551401562       38.9510442611       82.4569246395
C                 4.8497049597       38.6452875636       82.2386207939
C                 2.0855557217       38.4264387279       83.8603460026
H                 2.0154127174       36.7616553845       80.1093098156
H                 3.1941004574       39.4498168116       80.0147546924
H                 3.3669633424       37.1201076887       81.9527635846
H                 2.6144680045       40.0103198209       82.5118650660
H                 1.4407921180       38.8504993996       81.8678581872
H                 4.9156270129       38.5189737554       83.3164210643
H                 5.6491952913       38.0608651887       81.7900086830
H                 5.0120350399       39.6961906138       82.0122378420
H                 1.2175750102       38.9261192250       84.2817505874
H                 1.9043355530       37.3534952267       83.8403627305
H                 2.9256244507       38.6099583893       84.5237270463
N                 5.3790081999       38.7906537153       78.9217110005
C                 6.5764487721       38.3735988806       78.2010312224
C                 7.7974682975       38.3388586888       79.1345075853
O                 8.2211023597       39.3432758638       79.7021060320
C                 6.7209558332       39.4520553758       77.1279677921
C                 6.2265875954       40.7090835166       77.8398797140
C                 5.0881973332       40.2040562049       78.7312921450
H                 6.4185451625       37.3705682864       77.7977228098
H                 7.7458519545       39.5560916771       76.7867163912
H                 6.0652379092       39.2138110189       76.2903239218
H                 7.0150085654       41.1314127406       78.4601581453
H                 5.8880729506       41.4727011826       77.1446553177
H                 5.0716220462       40.7357137549       79.6849898807
H                 4.1181710065       40.3078268243       78.2350441600
N                 8.3723044114       37.1393687532       79.2387480273
C                 9.5366803171       36.9082839525       80.0615149469
C                10.7486337203       36.5988311829       79.1868945734
O                10.6594543269       35.8830019871       78.1975841745
C                 9.3245013875       35.7216535281       81.0197460707
C                10.5386104791       35.5599942342       81.9327090616
C                 8.0514823353       35.9283179369       81.8337038020
H                 7.9915187952       36.3385890621       78.7380257245
H                 9.7181043791       37.8164236083       80.6425646264
H                 9.2105692749       34.8133732938       80.4182283084
H                10.3433971172       34.7924668265       82.6767171164
H                11.4300843094       35.2770650695       81.3790556115
H                10.7524182576       36.4935791746       82.4491136741
H                 7.9112361072       35.0966255572       82.5185810836
H                 8.1179166203       36.8376271289       82.4244376314
H                 7.1828099597       36.0059759708       81.1870544157
N                11.8923127957       37.1509154301       79.6002633961
C                13.1864070479       36.8170963410       79.0431324428
C                13.9569919539       36.0528852194       80.1231848940
O                14.1402844991       36.5578541930       81.2289424041
C                13.9498209899       38.0847903257       78.6367844501
C                15.4064950731       37.7574699275       78.3445438494
C                13.2902007900       38.7205775453       77.4232498269
H                11.9024239608       37.6957771261       80.4540512268
H                13.0214141524       36.1818990826       78.1713026029
H                13.9121087086       38.7936479533       79.4739632330
H                15.9127598317       38.6372841431       77.9590343948
H                15.9228151365       37.4445010417       79.2481511817
H                15.4777979003       36.9609288891       77.6118123764
H                13.7046686755       39.7089009271       77.2424632332
H                13.4575931544       38.1094210230       76.5402104406
H                12.2190760589       38.8269122367       77.5755618881
N                12.6356915372       33.9895563744       75.0262230302
C                11.4308776652       34.7703429966       75.2372240273
C                10.2537518003       33.7984202459       75.3551658694
O                10.1370822237       32.8888377882       74.5420254287
C                11.2271833462       35.7830492069       74.0824434424
C                11.6835473255       35.2519593258       72.7221202996
C                11.2425730898       36.1709956716       71.5773017016
C                11.6947939085       35.6251607260       70.2177423970
N                11.0461726607       36.3579843432       69.0994359201
H                12.6002359314       33.3085313737       74.2798298170
H                11.5400899124       35.3125338167       76.1789195642
H                10.1698975067       36.0523605817       74.0546761245
H                11.7804014490       36.6919810349       74.3238066324
H                12.7712578987       35.1813013122       72.7161136962
H                11.2641645097       34.2548745085       72.5826612975
H                10.1586997294       36.2825004244       71.6042607974
H                11.6634774890       37.1647783935       71.7301440959
H                12.7742888093       35.7482194377       70.1278455174
H                11.4548359875       34.5643087490       70.1354202062
H                11.4316140670       36.0904998133       68.1866145055
H                10.0273504486       36.2420417002       69.1056624772
H                11.1756709026       37.4151338339       69.1900925105
N                15.0338451174       37.1141022463       89.5441991801
C                14.5843892369       38.2345935096       88.7417834404
C                15.7439241476       39.2239626837       88.6439401557
O                16.4646568600       39.4833798460       89.6063293424
C                13.2707025046       38.8050313009       89.2759944914
C                12.8871038422       40.0676435321       88.5198252162
C                12.1618897524       37.7620968713       89.1392749560
H                14.8209199906       37.1114648418       90.5369264417
H                14.4061028817       37.8505910252       87.7297225527
H                13.3947638942       39.0429897243       90.3361956978
H                11.9069414017       40.3958007127       88.8484415959
H                13.5863282525       40.8787946436       88.6988956160
H                12.8488615693       39.8809075751       87.4483590765
H                11.2490216468       38.1509546578       89.5787293371
H                11.9747841117       37.5575234756       88.0883600424
H                12.4332288717       36.8357318567       89.6365364024
N                15.9969525521       39.6626793413       87.4102497346
C                17.0524514009       40.6013016716       87.0978197214
C                18.4491147066       40.1232440349       87.5333791304
O                19.3599493663       40.9246591627       87.6465411392
C                16.8183491862       41.9762075476       87.7533336087
C                15.5110570532       42.6304184301       87.3256980862
O                14.5845953135       42.7607647352       88.1099438107
N                15.4524175982       43.0231077452       86.0392917247
H                15.3207899632       39.4880748123       86.6675646354
H                17.0691467043       40.7097314758       86.0085673760
H                16.7827670699       41.8386517716       88.8343287310
H                17.6617721933       42.6211327982       87.5066359143
H                14.6373252613       43.5302005283       85.7309519424
H                16.2711603329       43.0539627496       85.4568099417
N                 4.9828468771       39.2733955874       89.6891320208
C                 6.3673457103       39.4666151651       89.3086848396
C                 6.4804528772       40.6413374722       88.3292277541
O                 7.4377681864       41.4082375989       88.3392841652
C                 6.9907215642       38.2100810663       88.6898009104
C                 6.8207628304       36.9589115662       89.5611604392
C                 8.4732759860       38.4591023008       88.4226816057
C                 7.3367089447       37.1143382653       90.9864248382
H                 4.5670717799       38.3500159396       89.6807389061
H                 6.9350888790       39.7657796143       90.2024454203
H                 6.4813853967       38.0282234895       87.7355652525
H                 5.7709425271       36.6728144097       89.5999347875
H                 7.3644755818       36.1496184235       89.0683244175
H                 8.9184315816       37.5686195250       87.9888609648
H                 8.6104420510       39.2922331269       87.7394446810
H                 8.9907757366       38.7038374111       89.3453805288
H                 7.2697931728       36.1606461523       91.5014594340
H                 8.3736076495       37.4363846754       90.9968698599
H                 6.7447987333       37.8405503936       91.5408232034
N                 5.5278478026       40.7014804318       87.4032115219
C                 5.5670782428       41.6642465911       86.3169408259
C                 5.3467418876       43.0681193955       86.8738956164
O                 6.0863379856       44.0115163782       86.6135611322
C                 4.4891389649       41.3006107239       85.2873694567
C                 4.6368168465       42.0691087485       84.0045362726
C                 5.7286339733       41.8234540212       83.1783725578
C                 3.7009926162       43.0151042244       83.6106288737
C                 5.8741645016       42.4799565968       81.9726476484
C                 3.8407946941       43.6882377797       82.4104756256
C                 4.9250160986       43.4202464026       81.5740967344
O                 5.0038535508       44.0727777789       80.3913767951
H                 4.8085637538       39.9879568235       87.3652000940
H                 6.5684164799       41.6464521954       85.8657832897
H                 4.5914808063       40.2322922391       85.0876607763
H                 3.5100552454       41.4689191397       85.7362217929
H                 6.4693418903       41.1013795153       83.4864637323
H                 2.8654806903       43.2297332793       84.2574976782
H                 6.7244968900       42.2692524385       81.3421677114
H                 3.1472555448       44.4641113302       82.1262133110
H                 5.8577540095       43.8585496158       79.9620664018
N                 8.5939602925       44.0752113746       88.8017032138
C                 9.9378092035       43.9987019036       88.2798953727
C                10.0278809204       44.1900637213       86.7654483045
O                11.0834595425       43.9715518765       86.1746866191
C                10.6206597416       42.6562413004       88.6106539782
C                10.5483063343       42.2944536730       90.0631301998
C                 9.5823127308       41.3954869721       90.4981520302
C                11.4258335940       42.8213550575       90.9980959861
C                 9.4708264772       41.0431784924       91.8255167643
C                11.3210765386       42.4806172049       92.3370503861
C                10.3260993573       41.6076514202       92.7649500531
O                10.1451534318       41.2744843672       94.0749577292
H                 7.9634520870       43.3114375543       88.5784157290
H                10.4988625512       44.8134166991       88.7562538979
H                10.1174713217       41.8862725676       88.0226894308
H                11.6581073590       42.7330903117       88.2812032704
H                 8.8937660008       40.9931934539       89.7763534193
H                12.1940571853       43.5097402194       90.6774363047
H                 8.7070478150       40.3631577774       92.1721936695
H                11.9807022755       42.9327321141       93.0665616108
H                10.7588882325       41.7660257830       94.6371204071
N                 8.9207653203       44.5582343965       86.1083401868
C                 9.0156114372       44.7713201093       84.6715438577
C                10.1710139598       45.7533177381       84.4218832836
O                10.4556992751       46.6562145339       85.1906686957
C                 7.6957328366       45.2459909945       84.0427540155
C                 7.5202338765       46.7707062596       83.9787694955
C                 6.1509309296       47.2398367726       84.4694624625
C                 6.0910275644       47.1124650854       85.9874599260
N                 4.8429582986       47.6852858577       86.5630416215
H                 8.0337493334       44.6784863671       86.5809245899
H                 9.3122842619       43.8151352782       84.2157747445
H                 7.6417423537       44.8319250184       83.0352650551
H                 6.8905465106       44.7869086471       84.6162975495
H                 8.2863855369       47.2559345706       84.5827449067
H                 7.6830217503       47.1160820002       82.9580504398
H                 6.0308092434       48.2814681935       84.1709424782
H                 5.3700555989       46.6442643156       83.9948557785
H                 6.1412933019       46.0619662757       86.2713914930
H                 6.9473635841       47.6227852087       86.4276600439
H                 4.8202117561       47.3827729792       87.5681977473
H                 4.8471830783       48.7110473035       86.4935034762
H                 4.0239552663       47.3258744875       86.0559060810
N                10.8469503153       45.5204188677       83.2873159495
C                11.9383334035       46.3576275795       82.8432437959
C                11.4296314126       47.7103788716       82.3008545644
O                10.2758517481       48.0862775799       82.4422076812
C                12.7616464242       45.5800571317       81.8184011234
C                14.2095285768       46.0571581665       81.6343648990
O                15.0872554804       45.5091530589       82.3428580965
O                14.4677692478       46.9101488484       80.7575001002
H                10.5044004753       44.8613376669       82.6019598175
H                12.5487849158       46.6102453357       83.7269127671
H                12.8128747948       44.5432107460       82.1552788524
H                12.2445027978       45.6102523191       80.8567390394
N                12.4062056317       48.4442953343       81.7475421748
C                12.1854992689       49.7386486273       81.1357269358
C                11.3354470491       49.5033822773       79.8875794445
O                10.3018028116       50.1044119123       79.6484884719
C                13.4989310662       50.4484739935       80.7538182634
C                14.7041193947       50.1171839391       81.6323140230
C                14.5140187002       50.2729246872       83.1770477863
O                13.6380426152       51.0522728715       83.5986846315
O                15.3120531702       49.6053203312       83.8716147744
H                13.2791706023       47.9948234372       81.5005048520
H                11.6118242632       50.3514993451       81.8410262233
H                13.7555721716       50.1809530683       79.7261012592
H                13.3040757698       51.5202183254       80.7964371293
H                15.0343724828       49.0927527613       81.4619398321
H                15.5277872102       50.7834183525       81.3642208170
N                11.8822079468       48.5932352986       79.0482781519
C                11.0438137512       47.9108643818       78.0823257453
C                10.1484179357       46.9271507472       78.8541289186
O                10.2557140171       46.7578710399       80.0578714131
C                11.9095035094       47.2386591480       77.0288857857
C                12.6981029838       46.0543863051       77.6694233808
O                12.0283746069       45.2058124834       78.2864043312
O                13.9273017379       46.0396616885       77.4828806577
H                12.6145154113       48.0196725439       79.4511015912
H                10.3978814361       48.6796633692       77.6391523486
H                11.2886861882       46.8343002850       76.2280566251
H                12.6011813632       47.9698930351       76.6114200881
N                 9.1448268073       46.3675035670       78.1442917357
C                 8.1099581287       45.6281404567       78.8188213690
C                 8.4016938830       44.1605000846       79.0811117540
O                 7.5177826981       43.4448691633       79.5519520806
H                 9.1195228384       46.4368137804       77.1398094719
H                 7.9798509026       46.0801697990       79.8103019350
H                 7.1683180532       45.7167507296       78.2742480377
N                 9.6029191808       43.6916485040       78.7505816228
C                 9.9861059477       42.3788573266       79.2252730515
C                10.2148898430       42.4086020495       80.7411232795
O                10.5086771484       43.4329547805       81.3434919052
C                11.3001206915       41.9456034905       78.5701200769
C                11.1651201525       41.6200704178       77.1066728320
C                10.3409561837       40.5854550046       76.6814142309
C                11.9114158605       42.3085667140       76.1604796460
C                10.2673309100       40.2449770033       75.3415093024
C                11.8273513822       41.9757827282       74.8199646683
C                11.0099404393       40.9403226081       74.4042753076
H                10.3678079978       44.3411293228       78.5722700569
H                 9.1751014250       41.6776470051       79.0014290247
H                12.0118200787       42.7611073009       78.7010273027
H                11.6765401767       41.0693878840       79.1055766204
H                 9.7794778630       40.0281958552       77.4182848283
H                12.5584031102       43.1130469318       76.4799363110
H                 9.6458550290       39.4236549201       75.0261426468
H                12.4007657416       42.5328244427       74.0953668828
H                10.9573698548       40.6825197248       73.3569955574
N                10.1440809381       41.2121488624       81.3419384874
C                10.6791349247       40.9877219478       82.6700034116
C                11.8074020197       39.9678517764       82.5169357843
O                11.6237170578       38.8697669461       82.0049252431
C                 9.6203785897       40.5393457846       83.6841372498
C                 8.8385615142       39.3261679037       83.2046133020
C                10.3275887580       40.2597316258       85.0050400362
H                 9.7727107598       40.4140638969       80.8394087065
H                11.0930759167       41.9460126341       83.0053493037
H                 8.9358250725       41.3852742346       83.8214919451
H                 8.1244333010       39.0221260574       83.9664152648
H                 8.2964679655       39.5450827044       82.2874167347
H                 9.5249110262       38.5036927868       83.0256093393
H                 9.6078924765       39.9786171309       85.7702125511
H                11.0442880446       39.4478077367       84.8972242148
H                10.8568832728       41.1445968068       85.3572550321
N                13.0183385508       40.3913288934       82.8889310110
C                14.2115770147       39.5931416883       82.7022621337
C                14.5079888157       38.7826028598       83.9769367868
O                14.4199280452       39.2874007640       85.0934619227
C                15.4266820517       40.4854446240       82.4086015387
C                15.4699578881       41.0762982487       81.0211437144
C                14.5900026253       42.0768932007       80.6113652584
C                16.4735497351       40.6915030520       80.1405089429
C                14.7386930113       42.7117002343       79.3937375992
C                16.6219645941       41.3087843441       78.9128732706
C                15.7719175658       42.3423130448       78.5334931284
O                15.9388814552       43.0225770775       77.3676290454
H                13.1251029550       41.2560972826       83.3961338496
H                14.0227152152       38.9003691389       81.8768677821
H                15.4322824953       41.2902936100       83.1488916427
H                16.3243841623       39.8819281550       82.5557891575
H                13.7908396707       42.4081754835       81.2587207413
H                17.1803986152       39.9204679976       80.4093647274
H                14.0848621704       43.5260536403       79.1189655947
H                17.4292800517       40.9934744004       78.2652567135
H                16.6680324321       42.6370684362       76.8582590915
N                14.8881589073       37.5294656521       83.7517402105
C                15.1945337898       36.5566480881       84.7693002635
C                16.4706762564       35.8290710246       84.3854556478
O                16.6781797251       35.5037037468       83.2202180875
C                14.1112944082       35.4742905551       84.8356874438
C                12.7595307345       36.0659771560       85.1795766781
S                11.6382332584       34.6940767737       85.6107601594
C                10.0969346691       35.6169026956       85.8808538190
H                14.8442927832       37.1531503099       82.8081796456
H                15.3056390477       37.0660969060       85.7300327277
H                14.0515928025       34.9735594466       83.8679286552
H                14.3907673463       34.7406115585       85.5942272511
H                12.8263103141       36.7296898741       86.0448097676
H                12.3378971824       36.6142545886       84.3365112135
H                 9.4006780760       34.9488848558       86.3740114751
H                10.3088566095       36.4680540806       86.5209195880
H                 9.6915462246       35.9470194781       84.9292897713
N                 8.8250975552       32.8220392329       69.9918005179
C                 8.3877205106       33.4571818152       71.2836390605
C                 7.5569414368       32.3703159291       72.0365619526
O                 6.3964726596       32.1789216505       71.7254414582
C                 7.4985003613       34.6703060867       70.9697000772
C                 7.5892066655       35.7194526478       72.0477062616
C                 7.3936525485       35.3773754768       73.3794580143
C                 7.8938684508       37.0408071483       71.7314811378
C                 7.4924019381       36.3406271125       74.3680994724
C                 8.0062084150       38.0025093311       72.7213097346
C                 7.8003641206       37.6513742161       74.0427273067
H                 9.2955159403       33.4965624299       69.3682545895
H                 9.4540447096       32.0191383379       70.1613845598
H                 7.9787264388       32.4810909162       69.4993309109
H                 9.2587597458       33.7499112001       71.8731912546
H                 7.7669702502       35.1234807123       70.0157340391
H                 6.4613241169       34.3275300691       70.8943112611
H                 7.1461739972       34.3639071229       73.6554868751
H                 8.0311688382       37.3503087815       70.7058535725
H                 7.3304093965       36.0819700590       75.4026533569
H                 8.2390756056       39.0248378916       72.4596735104
H                 7.8565586917       38.3957196878       74.8206794526
H                21.2926630007       38.7679210394       75.3711701014
H                21.7263544341       43.3789166792       75.2383963930
H                17.9263876310       48.4546926125       72.5062650723
H                15.3506479280       50.0063947946       71.4085694842
H                14.5780606367       45.4860595264       69.8809004520
H                 9.8212050796       47.5151327219       70.4463651229
H                 8.8588064098       45.1163213860       68.9254789395
H                 5.7992614144       45.2580711891       72.3995617453
H                 1.4518498537       38.1681860230       79.8690749536
H                14.3137597954       35.1387488054       79.9306457447
H                13.3195447744       34.5400324019       74.8279280652
H                 9.5866254440       33.9081606810       76.0919829848
H                14.6688465277       36.3538805560       89.2298124579
H                18.6092607857       39.1546524193       87.7235987811
H                 4.8626924962       39.5508502710       90.5368240777
H                 4.5720002838       43.2498750240       87.4794865169
H                 8.6221115592       44.1069829724       89.7007015852
H                17.1513828895       35.6107057593       85.0847088856
H                 7.9792603688       31.8367838169       72.7693581077
