 474 
 
N                 7.0333700109       27.4800321217       -8.0321551664
C                 6.2777411360       27.1149727788       -6.8959880404
C                 6.6403602240       25.6808262771       -6.3580997953
O                 6.5615222405       24.8754265071       -6.9529187692
C                 4.7785788375       27.0832034406       -7.1746693356
C                 3.8882644321       26.7027329186       -5.9958569060
C                 2.7342416943       25.8756968591       -6.5144986011
C                 1.7701646018       25.5756984560       -5.3826642255
N                 0.7613377753       24.4655134361       -5.6997118193
H                 7.5805020835       26.7142707373       -8.3071754359
H                 6.4294644556       27.8195136640       -6.0971331793
H                 4.4399972290       28.1325964337       -7.3981175521
H                 4.5421014566       26.4216037963       -7.9998744472
H                 4.4505038266       26.0675644637       -5.3595942895
H                 3.4261840550       27.5919819779       -5.5800822862
H                 2.1496000858       26.3616426205       -7.3141450359
H                 3.0234708751       24.8802308086       -6.8976431428
H                 2.2787484938       25.2784220872       -4.5015608520
H                 1.1463988412       26.4589524488       -5.2218979024
H                 0.1008769957       24.3185998130       -4.8363630248
H                 0.1670501058       24.7027245565       -6.5777609545
H                 1.2444735638       23.5272976503       -5.8938934769
N                 7.1418596419       25.8059382050       -5.0154959486
C                 7.5600792460       24.5274367437       -4.3635977719
C                 6.4402500888       24.0636207644       -3.5098138625
O                 6.0444081029       24.5490966039       -2.8448116698
C                 8.8553965128       24.6232771911       -3.6535235599
C                 9.4408883073       23.3728973285       -3.1754423809
C                10.3412848225       22.6546531628       -3.8986042581
C                 8.8345497104       22.6542413031       -2.1433177872
C                10.8158121753       21.4243015858       -3.4629427545
C                 9.2483805558       21.3886424660       -1.6871376210
C                10.2861239521       20.7848487483       -2.3692036116
H                 7.5175099398       26.6192385318       -4.5122362042
H                 7.7114657526       23.8762993204       -5.2012143126
H                 9.6356004588       25.0741653958       -4.2363260682
H                 8.6471049817       25.1754305857       -2.7321886420
H                10.7778453064       23.0975292849       -4.7443798154
H                 8.0190978625       23.1089936383       -1.5487650876
H                11.5564762172       20.9226064708       -4.0314382298
H                 8.8113834593       20.9375413741       -0.7846051656
H                10.5889620526       19.8232768083       -2.0642428931
N                 6.1125649203       22.7388409359       -3.9591101361
C                 5.1225759662       22.0286478386       -3.1126963426
C                 3.7871561484       22.2526529029       -3.6972201157
O                 3.6021385418       22.8547524847       -4.6122078040
H                 6.5447423849       22.0372360090       -4.6058097555
H                 5.2884430290       20.9264609756       -3.0825953582
H                 5.0706279256       22.3067075231       -2.0760957148
N                 2.7331388933       21.4909460305       -3.1693760158
C                 3.0241941067       20.5305329723       -2.1260176242
C                 3.0565950762       19.1903046182       -2.7435643467
O                 3.0401690175       19.1002820960       -3.9280962826
C                 1.7146324469       20.6628820560       -1.2264745710
C                 0.6760353696       21.1551644780       -2.0704130720
C                 1.2069324791       21.8035741850       -3.2939896386
H                 3.8615055596       20.8043258882       -1.4748383163
H                 1.4589542619       19.6500860593       -0.8524514601
H                 1.8725478763       21.3631698384       -0.3729415413
H                 0.0432403305       20.3470442765       -2.4429830776
H                 0.0821815641       21.9353090482       -1.5647945257
H                 0.8945113079       21.3698522747       -4.2172294383
H                 0.9986457362       22.8827549242       -3.3269278020
N                12.4729322162       23.9023946954       -1.5249087197
C                11.9701769968       25.0676044186       -0.6863435230
C                12.6893799899       26.2005942234       -0.9554410478
O                12.5186425834       27.3954316910       -0.6001337676
C                11.9390674412       24.7160268808        0.8219626851
C                10.9626889724       23.7264071038        1.3375214934
C                11.2386671891       22.4204915316        1.6192217627
C                 9.5281372298       23.8843096534        1.1714036647
N                10.0089742843       21.7410599373        1.8039028841
C                 8.9339449573       22.6494420059        1.5067558261
C                 8.5978689621       24.8905474627        0.7992729782
C                 7.5216077411       22.4035107159        1.5311688047
C                 7.2512290961       24.6542427757        0.6954463866
C                 6.7087424786       23.4329002395        1.0898873679
H                11.8751255077       23.7408516803       -2.2941432279
H                10.9543439011       25.3203466648       -0.9539369189
H                12.9219339933       24.2649687538        1.0742989767
H                11.6340591059       25.5929501331        1.3648477304
H                12.2125281810       21.9832120023        1.6740568200
H                 9.8734323636       20.7256647506        2.0916296628
H                 9.0210385058       25.8303047145        0.4162406008
H                 7.1666247749       21.3932322097        1.7811138920
H                 6.5672244842       25.4470740578        0.5061171080
H                 5.6841455358       23.2733357002        1.1962164760
N                 5.6231546686       36.9845516109       -3.5839757260
C                 5.5691220206       35.9622731815       -3.2430795012
C                 4.1603927348       35.4055638486       -2.4998176350
O                 3.7108408889       36.0681676552       -2.1820725521
C                 6.6039925881       35.6920337251       -1.9787874867
C                 7.9376921837       35.5199081127       -2.5543631624
C                 6.6419928237       34.2563173393       -0.9684160630
C                 9.0463983127       36.5124488643       -1.8571653686
H                 5.6494307973       37.6683073775       -3.0242945720
H                 6.0325927932       35.0422190431       -3.8486409978
H                 6.6366163488       36.4157825600       -1.2870847924
H                 8.5331734665       34.4794285534       -2.5027829454
H                 8.0565912375       35.9101050840       -3.5232089940
H                 7.1116788904       34.1571947002       -0.4552661160
H                 5.4157610893       34.3255237423       -0.7567508741
H                 6.3705894219       33.4840058982       -1.9313129740
H                 9.9988290772       36.3771736396       -2.2892513591
H                 8.6643457505       37.4170834883       -1.8940877695
H                 9.0290011124       36.1155124445       -0.7913786764
N                 3.8092902403       34.0691859764       -2.3922868038
C                 2.9350823388       33.8702171738       -1.8312972295
C                 2.9420215962       32.0520129332       -1.4755118981
O                 3.7540536932       31.6945963528       -1.7400012032
C                 1.7965275334       33.7654790392       -2.9183416641
C                 1.9403890617       32.7960260757       -3.9993173002
C                 0.8414995382       31.2398463119       -3.8258196748
C                 2.6550524943       33.2051956413       -5.1859320896
C                 1.1532951002       30.6045914159       -4.7756425432
C                 2.6667051299       32.0442761963       -6.0224756988
C                 1.9940440206       30.6503920050       -6.0067220294
O                 2.1172190669       30.1422769990       -6.8653686055
H                 4.5270236515       33.2435095635       -2.7304371031
H                 2.4721192410       34.2580870493       -0.9077159281
H                 0.6553570080       33.6578913011       -2.3939141318
H                 1.7075599529       34.7435860181       -3.3772658797
H                 0.4920881289       31.3318758788       -3.0107329245
H                 3.0415999637       33.9135154881       -5.1766714986
H                 0.7036369925       29.6209697058       -4.7147045905
H                 3.2377898792       32.2076958094       -6.9275300340
H                 2.6586527880       30.1735414832       -7.6480898519
N                 1.9263259265       31.7558963754       -0.6932088026
C                 1.9703768185       30.3460705128       -0.2349886471
C                 1.1983881428       30.3460371792        1.0790518336
O                 0.9766978417       31.3947480124        1.7742391593
H                 1.1836787401       32.2276324397       -0.2659979779
H                 1.4597033355       29.7638477164       -0.9239593857
H                 3.0048211996       30.0089082623       -0.1278003743
N                 1.0095005281       29.0698733524        1.5502657923
C                 0.3481822191       28.8361617404        2.8494737423
C                 0.9082663247       27.6906238422        3.5895514171
O                 1.3870860553       26.7261332996        3.1293607837
C                -1.0370996622       28.4891692961        2.6686587979
C                -1.3262239763       27.3943559190        1.8394055149
C                -2.2887506144       26.3701585009        2.3955585423
O                -2.0940840827       25.3882407507        2.8169520848
N                -3.6225336998       26.8245589995        2.2092026064
H                 1.2359156989       28.1961237921        1.1157650219
H                 0.5645805482       29.7570887749        3.4059222567
H                -1.5207509063       28.2740096057        3.6361267628
H                -1.5589291892       29.3900317579        2.2470793133
H                -1.7545895071       27.7841996906        0.8784460853
H                -0.4144389991       26.8774227944        1.6133976946
H                -3.8601504932       27.5866818377        1.6368184193
H                -4.4433869891       26.1236538886        2.4644375390
N                 0.9307011821       27.9329685257        4.9550180901
C                 1.4970596916       26.8568504488        5.8252812211
C                 0.3965832146       26.3413810367        6.6924089353
O                -0.1494554030       27.0886475927        7.4534986453
C                 2.6478524992       27.3288236305        6.7828192576
C                 2.7984549706       26.3632605064        7.9607351675
C                 3.9541595212       27.4432396964        6.0097438537
H                 0.8451844606       28.7703327573        5.4891615770
H                 1.8678833459       26.0053230232        5.1903136462
H                 2.4331134723       28.2913595902        7.1478328674
H                 3.6257863973       26.7728030632        8.5621886064
H                 1.8044333456       26.3809024092        8.4641765909
H                 3.0397317909       25.3576670856        7.5380359290
H                 4.7419903821       27.7686210101        6.6702265284
H                 4.1330209070       26.4089900180        5.5599548371
H                 3.7573131482       28.1384813879        5.1503552856
N                -0.0080407198       25.0852247084        6.3663295486
C                -0.9999459756       24.3677100681        7.2107021428
C                -0.3646879114       23.5206631472        8.2504524803
O                 0.1904418071       22.4255891224        7.9366595400
C                -1.9227551673       23.4865787810        6.3302518954
H                 0.3612502140       24.4610873286        5.6423508834
H                -1.6767548679       25.0729976316        7.7408713879
H                -2.6636458910       23.0238796162        6.9589622077
H                -2.3754402228       24.2213937078        5.5857740066
H                -1.2026358394       22.7888537435        5.8299935009
N                10.4824916895       32.2810139750        6.8842879050
C                10.8934842289       32.5922709041        5.4952390299
C                12.0554106416       33.5063396781        5.4552308871
O                12.2157053685       34.6200941749        6.0237411803
C                 9.6944621779       33.2611322324        4.7697972927
C                 9.8621767573       33.4722061816        3.2437129579
C                 9.9731044047       32.1540781318        2.4937380712
C                 8.8211283125       34.4352651320        2.6451142780
H                 9.8987020067       33.0209965861        7.2664075587
H                11.0044139977       31.6973661034        4.8401846000
H                 8.7720228632       32.7199725441        4.8804377105
H                 9.5593335001       34.2754567766        5.2158051248
H                10.7685755850       34.0762298716        3.1225298571
H                10.1221080687       32.4452155902        1.4480041113
H                10.8415226478       31.6439331770        2.9959976299
H                 9.0038714855       31.6724621111        2.7138605096
H                 9.0305786280       34.5666005098        1.5872288768
H                 7.8588240507       33.9260411582        2.8451261014
H                 8.8752713708       35.4133299483        3.2132559599
N                10.2314503847       36.6742794591        7.3314773105
C                 8.9379194218       36.2656567679        7.8110496702
C                 8.9620682785       35.1073311213        8.8000295044
O                 9.6627546691       34.2582749001        8.6206789081
C                 7.9280131973       35.9548583728        6.6998530256
C                 6.4512621523       36.0476786850        7.0154048691
C                 5.5438760770       35.1384932024        6.1526841058
O                 5.7686862138       35.2059431929        4.9951557354
N                 4.5358617296       34.4541287021        6.8114424697
H                10.8228585931       35.8995918347        7.4402168836
H                 8.5048742380       37.0143363967        8.4614557970
H                 8.0174062708       36.6975964940        5.9068552953
H                 8.0239605710       34.9376254256        6.3656045408
H                 6.2988642841       35.7315019862        8.0596088395
H                 6.0890879034       37.0846420006        6.9276515823
H                 4.4495198707       34.5569982665        7.8572088093
H                 3.9437602618       33.8467442383        6.2114708612
N                 6.4260910078       32.4207327553       11.1377788261
C                 5.0782483469       31.8217499861       11.4642879446
C                 4.9762415460       31.0378548566       12.7980483123
O                 5.5895254067       30.1112319796       12.8449094363
C                 4.6003368122       30.9086608159       10.2952810439
C                 4.4326939481       31.6296425250        8.8876362371
C                 4.1628076267       30.6730632830        7.7659536204
C                 3.3958408935       32.7504199203        8.9171371812
H                 7.1256424835       31.6459568094       11.2570121321
H                 4.3330909051       32.6419982019       11.4996479489
H                 5.4024994326       30.2078569959       10.1052330131
H                 3.6346819408       30.5641262116       10.4838576628
H                 5.3695497659       32.1511458830        8.6348213323
H                 4.0750623412       31.2352689856        6.8339732261
H                 5.0104799358       29.9523712013        7.8027895032
H                 3.2292192387       30.1834839805        8.0889106564
H                 3.4376820591       33.3035846760        7.9175739598
H                 2.4553987485       32.2683521628        9.2208082739
H                 3.7208291428       33.4574655845        9.7381024751
N                -4.0087912447       27.7461337414        9.5583011524
C                -3.3054028533       27.6973512276        8.2922253308
C                -3.0176235769       29.1537190772        7.9647116609
O                -3.8394528645       29.8772666278        7.8028342455
C                -4.2348105993       27.1561933415        7.1655858517
C                -4.6746896337       25.6860410494        7.4458379467
C                -3.6264954573       27.2977696358        5.7049696009
C                -4.9661077573       24.9024222057        6.1516018858
H                -4.7684282255       27.0744188692        9.5631222563
H                -2.4734589932       26.9722746234        8.3011867764
H                -5.1591925022       27.7222592857        7.1963418741
H                -3.8571274950       25.2125322845        7.9367259387
H                -5.6239820103       25.7331648216        7.9569440449
H                -4.4035161057       26.8991156063        5.0130096064
H                -3.4120271193       28.3761724658        5.6355596616
H                -2.7240744467       26.6760881601        5.7755285277
H                -5.2370409306       23.8779857877        6.4421373895
H                -5.7414138082       25.4518351342        5.5796933521
H                -3.9691410561       24.9564547542        5.5828020627
N                -1.6557223391       29.3318205702        7.8077759271
C                -1.1616887489       30.7373030300        7.5527933714
C                -0.6862604504       31.0017320736        6.1705747181
O                -0.2616206345       30.1534913379        5.5667491608
C                -0.1132450011       31.1043726410        8.6285030355
C                -0.4853365941       31.2650033886       10.0623166762
C                 0.5462240157       31.0673904744       11.1026101757
O                 0.9119497647       30.1687700231       11.2523121698
N                 0.8666242635       32.1036579821       11.6985549173
H                -0.8121782712       28.7054169223        7.8034610100
H                -2.0297170576       31.3920553650        7.7343216506
H                 0.6099480896       30.3598496428        8.6235427906
H                 0.2412356105       32.1005683474        8.3425975654
H                -0.9624045082       32.2683874676       10.1757602834
H                -1.3833676007       30.5949711111       10.2356958463
H                 0.4614931470       33.0137300324       11.5741000582
H                 1.6549056794       32.1056958245       12.4345092761
N                -0.9045332779       32.3139106407        5.8657381577
C                -0.3124249756       32.7776079739        4.6210571642
C                 1.1103834836       33.1831670467        4.6436634068
O                 1.4459982829       33.8099247686        5.5881118334
C                -1.2273727149       33.9386849611        4.0457036541
C                -2.3598969788       33.3742628066        3.1474371094
O                -2.9479870602       32.6411847764        3.3728886810
N                -2.4217651462       34.1481549287        1.9355692635
H                -1.3240872309       33.0884159390        6.3187394433
H                -0.3971668042       32.0103387640        3.8351377361
H                -1.6378458792       34.4276977835        4.9022490558
H                -0.5643619650       34.5846499632        3.4496272572
H                -3.2590922905       33.8938967343        1.3201267582
H                -1.8095651566       34.9275521012        1.8163247032
N                 1.8363006560       32.8129049074        3.5963346523
C                 3.1919665701       33.2860823866        3.5357759529
C                 3.4036614254       34.0831569748        2.2355857405
O                 2.6544998865       33.9398385647        1.4321930357
C                 4.1672898775       32.1426186926        3.4453761209
C                 3.5052521318       30.8836094457        4.0118037984
C                 4.6706746655       31.9504828019        1.9754914525
H                 1.6350481582       32.1530934976        2.8684097890
H                 3.4947303677       33.9175704493        4.3995818665
H                 5.0604858430       32.3379043027        4.0675461799
H                 4.2712996010       30.0670921015        3.9259424318
H                 3.2827118489       31.0914021044        5.0753668212
H                 2.6196690350       30.7259500854        3.3500503772
H                 5.3841650632       31.0781642598        2.0320808157
H                 3.7797584193       31.7056585070        1.3946246953
H                 5.2013155373       32.8866222184        1.7089904307
N                 4.3121347354       35.1893110131        2.3265451287
C                 4.5894779510       35.6967492600        0.9418029109
C                 4.7847358103       37.4186031992        1.2145894236
O                 5.0264497638       37.9434847383        2.0185530136
H                 4.8171557545       35.3904229011        3.2482562387
H                 5.6352903138       35.5823345520        0.7649837521
H                 3.8536066877       35.5863855647        0.3033739906
N                12.0298741931       28.7003371287        2.7160482722
C                11.0826760935       28.3351413405        3.7884460655
C                11.5391813568       27.1256484544        4.5862476536
O                11.8858836556       26.3095638140        4.0610646199
C                 9.6857728426       27.9108389762        3.3075695324
C                 8.4273414617       27.9984832579        4.1131207730
C                 8.2424915294       29.4557299724        4.6565496151
C                 7.1787595894       27.4739584017        3.4352058316
H                11.7201532178       28.1519702549        1.8866585264
H                10.7100793212       29.1455945544        4.4832520765
H                 9.3978360341       28.5808338199        2.4692100449
H                 9.6905138427       26.9270342583        2.8988440541
H                 8.5942956560       27.4140320186        4.9900509864
H                 7.3444938668       29.4034377858        5.3382773251
H                 9.1620610727       29.7219853390        5.1979099449
H                 8.0133859179       30.0893388082        3.7854667189
H                 6.3561429746       27.5603887437        4.1944177392
H                 6.9988510822       28.1368880227        2.5807129261
H                 7.3810323383       26.4464023267        3.1664516474
N                -0.0889510683       19.5672107867        2.0435786412
C                -0.9482551576       20.8031072910        1.9993991816
C                -0.3521939809       22.2115782799        2.3859576243
O                -0.8611590741       22.9809086924        2.6523233275
C                -2.0890654102       20.6229729688        2.7530003284
C                -3.0742264494       21.8600156600        2.9161748462
O                -2.9844295425       22.5002500119        3.6362593226
N                -3.8951836142       21.9828419957        1.6823375463
H                 0.7524826363       19.7086023686        2.5812604599
H                -1.1648176778       20.9238420544        0.9520201256
H                -2.7640604152       19.8149297780        2.3525207974
H                -1.9298991702       20.3573555095        3.7988728350
H                -4.4902416567       22.8395323523        1.6640556227
H                -3.7797218356       21.3017004424        0.9123717482
N                 1.0943676570       22.0400683840        2.4081983889
C                 1.8694148794       23.2904087409        2.5818823796
C                 2.8635435042       23.4966480126        1.3854192175
O                 3.3443489257       22.6396299303        0.7134346148
C                 2.7144215592       23.2085219914        3.7874850893
O                 1.7798408904       22.9678722213        5.0304812574
C                 3.5183475363       24.4675592859        4.0730313035
H                 1.6994148749       21.3441122388        2.0062979966
H                 1.2898492148       24.2199632854        2.6779172174
H                 3.3937461909       22.3986246950        3.7488589857
H                 1.5691448858       21.9733415076        5.0395192254
H                 4.1091181443       24.3163081265        5.0305359947
H                 4.2365476144       24.6224470563        3.2637549133
H                 2.8518067715       25.3484392021        4.3085159750
N                 3.1281099269       24.8348207853        1.0909330352
C                 3.9095095317       25.1902174387       -0.1805208716
C                 4.0607468847       26.7976268231       -0.0310058024
O                 3.8136219116       27.5185122560        0.7378230262
C                 3.2127365245       24.7415380137       -1.1950338394
C                 1.8631918615       25.4613433444       -1.3249980645
C                 1.6185825829       26.6920676107       -1.9843383698
C                 0.6419060497       24.9746231104       -0.7353241204
C                 0.4166285045       27.3915600108       -2.0775805704
C                -0.5521828944       25.5531184943       -0.8857645891
C                -0.6427985613       26.7836396365       -1.5191951935
O                -1.8978241795       27.3339138765       -1.5911474760
H                 3.1122607098       25.6137076296        1.7609323226
H                 4.9188950460       24.7415339884        0.0140053842
H                 3.6518089495       25.0745829504       -2.1606730330
H                 2.9256285056       23.6941477409       -1.2363431970
H                 2.5161958560       27.2080510548       -2.3725431335
H                 0.7323046457       23.9451055822       -0.3307864084
H                 0.3727680324       28.3486613316       -2.5179205297
H                -1.4466299636       25.0786862836       -0.4356692726
H                -2.6148516904       26.8379223176       -1.0394130015
N                 4.7968413142       27.1023012720       -1.1623183942
C                 4.9260844364       28.5509114051       -1.5203781616
C                 5.2567398256       28.7472126749       -2.9987212326
O                 5.9626173974       27.7859649605       -3.4616053863
C                 5.7572162328       29.2562030487       -0.4417405509
C                 7.3082191027       29.1675472747       -0.4867091081
C                 8.1504009700       28.1376913284        0.0620705245
C                 8.1931661473       29.9552441713       -1.4286739070
N                 9.4575818372       28.3300370506       -0.3723953827
C                 9.5146194087       29.3570410578       -1.3477441873
C                 7.9884653701       30.8270838985       -2.5624481478
C                10.5392460362       29.6928526270       -2.2529318069
C                 8.9893460890       31.2540757416       -3.4223909172
C                10.2695488188       30.6180269331       -3.2130492815
H                 5.2370067666       26.5827069851       -1.9495416200
H                 3.8938053435       28.9568623283       -1.5032775774
H                 5.6287040171       30.3374965487       -0.5638457737
H                 5.5577174772       28.8771919945        0.5184399409
H                 7.6933133436       27.5018761516        0.7779524818
H                10.1888091891       27.7236206694       -0.0867992997
H                 6.8829713596       31.1650030054       -2.7505823057
H                11.5386416187       29.3799084788       -2.0321359123
H                 8.8495382745       32.0624429697       -4.0732135159
H                11.1088408556       31.1166264963       -3.6435086409
N                -5.2030827156       39.7771975889        0.2558303855
C                -4.2873239028       39.2024143926        0.1809200442
C                -3.8423969095       38.3116494164       -1.2296969808
O                -4.5464216516       38.2922503686       -1.7129787850
H                -5.5864129452       40.4125653804       -0.7152622965
H                -3.1118390541       39.6776664613        0.3746507895
H                -4.1328460605       38.2668955149        1.0562396935
N                -2.7306352507       37.7364622277       -1.3582981634
C                -2.6327573295       36.9840679769       -2.1945071808
C                -2.7866648491       35.1699970402       -2.1226463027
O                -2.1412754201       34.9020660972       -1.3962425832
C                -0.9453411822       36.9053134627       -2.6526770272
O                -0.6610155927       38.0516087736       -2.9114437988
C                -0.5781197530       36.3279499436       -4.2291448242
H                -2.0035384552       37.6218317380       -0.3327918397
H                -2.9640635843       37.2194590562       -3.2627697453
H                -0.4435607744       36.3779094656       -1.9298033431
H                 0.4729791555       38.2705508437       -3.0150882529
H                 0.4886122982       36.2081524545       -4.2229231557
H                -1.0001987652       35.1195063854       -3.9410335791
H                -1.1865222668       36.6668080415       -4.8377844859
N                -3.9057180918       35.0621493794       -3.0139853960
C                -4.0026341843       33.7253253100       -2.6598954881
C                -4.4121843541       32.4214736496       -4.3792097939
O                -4.7467672353       33.2413579540       -4.8484195689
C                -5.7386616207       33.9405832098       -2.1490419709
C                -5.5534384848       33.9322654399       -0.7408647961
C                -5.8352487554       33.1493999421        0.3674648004
C                -5.6290728055       35.3333293710       -0.5157130467
C                -5.7238684952       33.9247778826        1.7036572240
C                -5.6932744892       35.8938528793        1.2768131281
C                -5.7434057952       35.0746082169        1.6929399489
O                -6.0241573979       35.3771700150        2.5998766146
H                -4.0586087104       35.2924164159       -3.5205295163
H                -3.5219100030       32.9696860799       -2.0636497722
H                -6.2502244505       34.2313965851       -2.8066359693
H                -6.0526490895       32.6136482994       -2.1016423711
H                -5.7972092866       32.2390007798        0.1914645623
H                -5.5433150533       36.1416052956       -1.2740069800
H                -5.9861751360       32.9649664186        2.4909385120
H                -5.6609650682       37.0116307218        1.0106494646
H                -5.7978487021       36.5016125612        3.2779017060
N                -3.6602703786       31.3790276323       -3.9600405944
C                -4.1146692821       30.8392091655       -5.0184656975
C                -5.0509784849       29.6757149070       -4.5044767925
O                -5.3175721880       29.1471687913       -3.8700000657
C                -2.7011484179       29.5630487041       -5.1247629019
C                -3.0570705363       28.5584866881       -6.2984245642
C                -1.5731285419       27.5354814657       -6.1575516493
O                -1.2096630813       28.2299948666       -6.8299592523
O                -1.8374268778       26.5890604291       -5.9467619021
H                -3.1092190243       31.0742111589       -3.1123545641
H                -4.0130413864       31.0450612973       -5.9209359890
H                -1.8950837378       30.2446093597       -5.4414365148
H                -2.6153370111       29.1275100549       -4.2213316539
H                -3.8616383788       28.0015235178       -6.0047970424
H                -2.9925046847       29.0424610784       -7.1605324507
H                 6.4774649700       27.7130560805       -8.7004884816
H                 3.0918296789       18.3745075951       -2.1663003345
H                13.2980867112       24.0877760340       -1.8327298019
H                13.5074248005       26.1492725991       -1.5283012215
H                 6.3704999812       37.0993545082       -4.0721306998
H                -0.3726424513       23.8126919600        9.2068289217
H                10.0158018256       31.5115325135        6.8942303077
H                12.8633011063       33.2648281939        4.9176574502
H                10.1691454052       36.9138076201        6.4661771605
H                 8.3557075932       35.1160474517        9.5951714696
H                 6.4218875108       32.7264581065       10.2913071254
H                 4.3903469690       31.3772557691       13.5339386337
H                -3.4385680730       27.5503333083       10.2265134875
H                 4.6421608377       38.0631717181        0.4634544147
H                11.9850981321       29.5863628449        2.5645440329
H                11.4968365342       27.1406139788        5.5852386190
H                -0.5514461420       18.8930294066        2.4198468614
H                 4.9253075101       29.5575869152       -3.4818839494
H                -5.8883538208       39.2266927200        0.4490864374
H                -5.7107770192       29.2533724695       -5.1260013371
