 447 
 
N               -19.3282421269       71.4434752724       15.8253747865
C               -20.0508514531       71.6546250192       17.0303521696
C               -21.5613749493       71.8566189788       16.8456775758
O               -22.3830669536       71.4205441835       17.6635962154
C               -19.5419482586       72.9198511291       17.6813959416
C               -20.5623930284       73.2947235792       18.7375475978
C               -20.1436265241       74.4079331666       19.7297517175
O               -19.2093019484       75.1907066675       19.3993046128
O               -20.8493153029       74.3923633744       20.7760907587
H               -18.5633829940       72.0820406055       15.6312986243
H               -19.9365874796       70.7945761145       17.7064413387
H               -18.5597372371       72.7806695779       18.1347401154
H               -19.4844400274       73.7250740547       16.9581722657
H               -21.4823846968       73.6717187998       18.2893696988
H               -20.8228927518       72.4294303001       19.3501332877
N               -21.9232041802       72.6077150165       15.8177964910
C               -23.3184893128       72.8900407843       15.6110899882
C               -24.0259704362       71.8701850833       14.7286425989
O               -25.1773085740       71.5173232173       14.9642195293
C               -23.4746944547       74.2970655083       15.0781579104
C               -24.7951747061       74.4403726707       14.3381917327
C               -23.3863462169       75.2272666710       16.2753391514
H               -21.2463826491       73.1100927088       15.2571761613
H               -23.8169383792       72.8144359746       16.5849401601
H               -22.6467792013       74.5021710349       14.3938424440
H               -24.9517562900       75.4822769092       14.0700679919
H               -24.7950650886       73.8421375372       13.4308209706
H               -25.6143392726       74.1057440355       14.9688102423
H               -23.4400438412       76.2641623569       15.9500900295
H               -24.1973840994       75.0345551030       16.9713263991
H               -22.4367824307       75.0921039711       16.7902195305
N               -23.3057751075       71.4057542847       13.6999218669
C               -23.6936757603       70.1424362985       13.0831774806
C               -24.3658130591       69.3150612994       14.2064934384
O               -25.5244433301       68.9223930265       14.2027331150
C               -22.4270105897       69.4440545102       12.5322843094
C               -22.5290162077       67.9177423329       12.3178724521
C               -23.0656624608       67.3947562072       10.9160802660
O               -22.3005099458       67.4410560959        9.9359283617
O               -24.2139629225       66.8848023727       10.9185717758
H               -22.3455928827       71.7122179923       13.5935235484
H               -24.4331341352       70.3099733271       12.2905017460
H               -22.1574102296       69.9186561198       11.5849621224
H               -21.6133773040       69.6164537931       13.2345204670
H               -21.5263164159       67.4982720507       12.4198502769
H               -23.1759506206       67.4942026435       13.0873490386
N               -23.4319277161       69.0735807851       15.1426313519
C               -23.6383998289       68.3498160419       16.3677146841
C               -24.8662962055       68.9251276286       17.0308142085
O               -25.8450169006       68.1983420920       17.1704361213
C               -22.4040635747       68.3506107462       17.2843195747
C               -22.0736071680       66.9389160773       17.7768377827
C               -23.2338995372       66.2912651691       18.6009165680
O               -23.8726016799       67.0020079026       19.3889593888
O               -23.4156435277       65.0448254126       18.4241623007
H               -22.5098662734       69.4699906003       15.0239120193
H               -23.8941329719       67.3071013915       16.1188391973
H               -21.5491199915       68.7527803389       16.7410257001
H               -22.5863663742       68.9938191108       18.1464015983
H               -21.8231477789       66.2766317354       16.9478747677
H               -21.2154737856       66.9886954173       18.4530020623
N               -24.8820661631       70.2079815240       17.4029780869
C               -25.9933836263       70.5456319122       18.2838410911
C               -27.3152121853       70.0046253354       17.7344847052
O               -28.1048757794       69.4302566965       18.4790745108
C               -26.1105238160       72.0295711484       18.5803854157
C               -26.9334742128       72.2411414063       19.8523495635
C               -26.3520744833       73.4058770031       20.6508999075
N               -27.0289729606       73.6120225888       21.9202085403
C               -27.9660682817       74.5257924079       22.2047087902
N               -28.3929770923       75.4143781987       21.3088712836
N               -28.5258675635       74.5570903245       23.4278902440
H               -24.0166724612       70.7356625713       17.5116943384
H               -25.8392076108       70.0020633006       19.2298306914
H               -25.0987716547       72.4118229536       18.7365159928
H               -26.5508847612       72.5474401763       17.7277324955
H               -27.9770863950       72.4380855894       19.6085303182
H               -26.9078456976       71.3459879788       20.4746075081
H               -25.3002420771       73.2106358178       20.8713525513
H               -26.3940031139       74.3187379593       20.0537752954
H               -26.7658967143       72.9693581208       22.6556878390
H               -28.0298263023       75.4450366856       20.3707026528
H               -29.0669212332       76.1219230097       21.5603202537
H               -28.1288394362       74.0140609398       24.1793788593
H               -29.0912366590       75.3532636789       23.6780547331
N               -27.5769521264       70.2535676693       16.4441141942
C               -28.8000321327       69.8042896480       15.8082131477
C               -28.9857595824       68.2937968640       15.6348886095
O               -30.1295179435       67.8417033930       15.6428220494
C               -28.9547106970       70.5286608012       14.4688030587
O               -28.8027253485       71.8922849379       14.8030077496
C               -30.3092264076       70.2262771162       13.8258968811
H               -26.8607407787       70.6657807168       15.8621140715
H               -29.6316824555       70.1237985855       16.4536377014
H               -28.1336485644       70.2068097404       13.8073422647
H               -29.0132235322       72.4302660142       14.0307546316
H               -30.3540308964       70.6704261253       12.8342501793
H               -30.4617550300       69.1570168171       13.7268009176
H               -31.1083935271       70.6408176524       14.4305271914
N               -27.9258911475       67.4938622418       15.4790810654
C               -28.0872093955       66.0809430392       15.7675623032
C               -28.8277832391       65.8120562825       17.0661504787
O               -29.3912954475       64.7237632736       17.1981430685
C               -26.7553678581       65.3668653347       15.9906657151
C               -26.9044700263       63.8402166767       16.0343375676
C               -26.7208490508       63.2607471128       14.6361022795
N               -25.3138736095       63.3740147297       14.2373613298
C               -24.6575457846       64.3612215748       13.6126599035
N               -25.2784878816       65.4120913253       13.0710532013
N               -23.3128200525       64.3047871430       13.5483640378
H               -26.9936075630       67.8883427474       15.5210424806
H               -28.6590745669       65.6087785804       14.9583435962
H               -26.0667506742       65.6612508977       15.2015519477
H               -26.3218924434       65.7494760349       16.9143141206
H               -26.1260113201       63.4302514480       16.6758507991
H               -27.8765636241       63.5534675377       16.4298844984
H               -26.9644171249       62.1981196499       14.6298137137
H               -27.3655049626       63.7635042996       13.9155559402
H               -24.7340380198       62.6583105204       14.6550525397
H               -26.2834292195       65.3831166127       13.0036885660
H               -24.8309366315       65.9719251559       12.3297067986
H               -22.8483016637       63.4332631187       13.7608800471
H               -22.8679923847       64.8644429008       12.8352005776
N               -28.7160256562       66.6471008298       18.0942837692
C               -29.5165429647       66.3115247744       19.2555777466
C               -30.9838999599       66.5147771959       18.8761296817
O               -31.8307810500       65.6885715600       19.1798840655
C               -29.0739655123       67.0325522247       20.5186810196
C               -27.5833354441       66.8252382754       20.8283665638
C               -27.0924198908       65.3677020263       20.9372643274
C               -26.5022796176       64.8069244917       19.6385062018
N               -25.3436217513       63.8909070898       19.8585751749
H               -28.2704075149       67.5583925726       18.0541532656
H               -29.4206979568       65.2311310867       19.4187917617
H               -29.2509047483       68.1030367614       20.4061246627
H               -29.6801815949       66.6711429147       21.3500534751
H               -26.9869291212       67.3477312874       20.0804636960
H               -27.3978454419       67.3161576418       21.7860868602
H               -26.3116749686       65.3645925001       21.6989492276
H               -27.8974866603       64.7320844073       21.3031753045
H               -27.2595825385       64.2822802121       19.0585948931
H               -26.1312888837       65.6530091978       19.0561044583
H               -24.4798043737       64.3204872499       19.2854951314
H               -25.0787357325       63.8810921478       20.8488221984
H               -25.5331485966       62.9332460278       19.5599187731
N               -31.2904113801       67.5631669630       18.1241716563
C               -32.6240657810       67.7405322507       17.5971374634
C               -33.1173924903       66.5466375168       16.8086315136
O               -34.3118936795       66.2949611575       16.7398215902
C               -32.6584530802       68.9863629817       16.7371239751
C               -32.7767226951       70.2690139221       17.5810307143
C               -32.1577882901       70.2104189871       18.9902198449
C               -32.2099411197       71.4376472899       16.7594122999
H               -30.5896757787       68.2414342818       17.8664228447
H               -33.3385007467       67.8394329774       18.4246162283
H               -31.7639159224       68.9952561393       16.1197228771
H               -33.5195821939       68.9312286154       16.0710101687
H               -33.8430494411       70.4660801282       17.7288856232
H               -32.3541471498       71.1608932333       19.4808815556
H               -32.5953879706       69.4306450174       19.6011988546
H               -31.0776290218       70.0787644647       18.9566971501
H               -32.4234563835       72.3828126858       17.2538926262
H               -31.1328286065       71.3648263608       16.6414407489
H               -32.6834300479       71.4579796418       15.7813761022
N               -32.1871716745       65.8007749093       16.2203000043
C               -32.5485032771       64.4690163464       15.8215017575
C               -32.8066547470       63.5529123385       17.0272457670
O               -33.8852988866       62.9751374558       17.1257512852
C               -31.4877635646       63.8225534192       14.9530446894
C               -31.8711987305       62.3770905663       14.6218509699
C               -33.1438294857       62.2967348762       13.7912413495
O               -34.2128906666       62.7842521777       14.1209649611
N               -32.9834718954       61.6914285353       12.5996008941
H               -31.2262239613       66.1109791825       16.1977150101
H               -33.5079413818       64.5129835537       15.2918360869
H               -31.3760618056       64.3997150199       14.0332663268
H               -30.5420219986       63.8248490411       15.4961459683
H               -31.0535475607       61.8986048306       14.0863683663
H               -32.0480316847       61.8194155356       15.5438883716
H               -32.1476428850       61.1773236214       12.3826168398
H               -33.7956213741       61.5294405262       12.0248964079
N               -31.7956447515       63.3656380883       17.8894393323
C               -31.8786733875       62.3617929913       18.9578731475
C               -33.2667894691       62.4708631147       19.6750043016
O               -33.8659491371       61.4958968105       20.1242787270
C               -30.5414204325       62.2716113701       19.7834291125
C               -30.4294093019       62.8362170009       21.2192285628
C               -29.2925696123       62.2092195616       22.0564770539
O               -28.9888580428       61.0276525158       22.0153109641
N               -28.6025580174       63.0547501797       22.8582603875
H               -30.9248225544       63.8724802130       17.7672449588
H               -31.9684231989       61.3807794118       18.4598330522
H               -30.3061026361       61.2093581440       19.8740196180
H               -29.7696774741       62.7285945572       19.1626079841
H               -30.3419732794       63.9216988297       21.2256176115
H               -31.3487036171       62.5817268476       21.7565452263
H               -28.9731023293       63.9435067247       23.1663526195
H               -27.9584641636       62.6218209481       23.5042488953
N               -33.7761156000       63.7048908986       19.6735963153
C               -35.0594727120       64.0041365052       20.2367435530
C               -36.1479908929       63.6655669684       19.2491108545
O               -36.9965385850       62.8399232733       19.6165771416
C               -35.0412776126       65.4094795035       20.8181899087
C               -34.1226527752       65.3725182932       22.0321893284
C               -34.5721088325       64.8552832744       23.2458349527
C               -32.7908866572       65.7934208192       21.9921260512
C               -33.7741152918       64.8242751208       24.3814476858
C               -31.9691924575       65.7578207946       23.1129230162
C               -32.4650677474       65.3075524331       24.3390094989
O               -31.7319656640       65.3402575904       25.4867446948
H               -33.1847280899       64.4761875865       19.3900103780
H               -35.2297214945       63.2909786694       21.0602422589
H               -34.6773839541       66.1169404212       20.0740119717
H               -36.0480272570       65.6953800820       21.1211686864
H               -35.5895045700       64.4982308664       23.3249738500
H               -32.3926278396       66.1803455876       21.0728872563
H               -34.1633589345       64.4491630577       25.3152689371
H               -30.9450246798       66.1049206355       23.0765870665
H               -30.7978329864       65.5617077852       25.2712542030
N               -36.2086701961       64.1449318047       18.0290421285
C               -37.2747912929       63.6208465052       17.1872659107
C               -37.4694519818       62.0942770593       17.3487439447
O               -38.5997806824       61.6374153120       17.5104320023
C               -37.0190276498       64.0335337727       15.7414842435
C               -38.3005216381       64.0203292974       14.9075743454
C               -37.9755378176       64.2227262349       13.4153173818
N               -39.2162848644       64.4087789011       12.6497513958
C               -39.3555823241       64.5253252060       11.3261436091
N               -38.2949104796       64.4523129519       10.5214415442
N               -40.5757547052       64.7534529965       10.8186686232
H               -35.5457606828       64.7972360010       17.6241678718
H               -38.2203387161       64.0466079313       17.5394564718
H               -36.6148245177       65.0466216930       15.7623438663
H               -36.2622699945       63.3811875848       15.3023107421
H               -38.8102957517       63.0685738731       15.0504895225
H               -38.9506886472       64.8219994818       15.2558006039
H               -37.3428282552       65.1078140348       13.3066767660
H               -37.4326819584       63.3468276977       13.0532581034
H               -40.0534269019       64.4626048272       13.2126705860
H               -37.3810029388       64.2751373338       10.9035930096
H               -38.3965937779       64.5201796135        9.5225117294
H               -41.3940981777       64.7558404285       11.4041707629
H               -40.7135236004       64.7889534412        9.8219888618
N               -36.3680956945       61.3302168112       17.2185316662
C               -36.3711328755       59.8736419322       17.1802160520
C               -36.5759544366       59.1999532783       18.5462240582
O               -36.4863514391       57.9854849669       18.6823885228
C               -35.1272974521       59.2539752270       16.5118075340
C               -35.3612558057       58.6981969539       15.1029386750
C               -34.3899317177       57.5345377879       14.6425130001
O               -34.1537319380       57.4857066986       13.4167722503
O               -33.9780895160       56.7376143009       15.5067512195
H               -35.4744571010       61.7973693907       17.1150848298
H               -37.2664980253       59.5710393354       16.6132982100
H               -34.3232056595       59.9931781132       16.4924345344
H               -34.7890036831       58.4136845360       17.1267426887
H               -36.3500140702       58.2317200137       15.0551268694
H               -35.3136511340       59.4865320715       14.3506967610
N               -36.9697809140       60.0167520270       19.5171147222
C               -37.4632547612       59.5178617362       20.7658883831
C               -38.8419113858       60.1035464285       21.0365814841
O               -39.7637790296       59.4042444432       21.4425116546
C               -36.5020919863       59.7523450939       21.9251590186
C               -37.2138358522       59.5391492332       23.2553325485
S               -38.2674530497       58.0158776641       23.4087914775
C               -37.3838520558       57.2198147294       24.8085337628
H               -36.8642817048       61.0193064771       19.4109743303
H               -37.5896733947       58.4378483115       20.6473789209
H               -35.6533639911       59.0765191350       21.8070622280
H               -36.1193397561       60.7747413948       21.8879707175
H               -36.4815763126       59.4770968724       24.0547202397
H               -37.8963378792       60.3650038802       23.4461082528
H               -38.0059580589       56.3765793433       25.0838447660
H               -36.4090901625       56.8771932430       24.4757290372
H               -37.2914235842       57.9303443345       25.6202083293
N               -39.0068685982       61.3912113260       20.7697840953
C               -40.3135080765       61.9875783412       20.9124326842
C               -41.2970024135       61.0624445334       20.2245806468
O               -42.2616901735       60.5125351473       20.7407227755
C               -40.3063569975       63.3551679089       20.2611693594
C               -41.1756577941       64.3697632326       20.9954000507
C               -42.6174922381       64.1461518057       20.6184283566
C               -40.9728760669       64.3642831527       22.5038821012
H               -38.2448685200       61.9831009001       20.4665720643
H               -40.5638842400       62.0321544149       21.9761104202
H               -39.2739818909       63.7101408700       20.2525256000
H               -40.6434660450       63.2805206968       19.2266835199
H               -40.8689130283       65.3590162177       20.6354109321
H               -43.2804074132       64.7420710812       21.2375129561
H               -42.7790816440       64.3998043397       19.5785910050
H               -42.8864716375       63.1046897106       20.7435309758
H               -41.3299045485       65.3009389590       22.9260572284
H               -41.5163217492       63.5609494238       22.9913799487
H               -39.9173042301       64.2667442745       22.7482794988
N               -32.9573421173       64.9663474306       30.4428211420
C               -31.9274983039       64.7800246562       29.4147913571
C               -31.8051586315       66.0404224478       28.5418453233
O               -30.7020144882       66.3300305382       28.0867696861
C               -32.0228237906       63.4914535384       28.5713235575
C               -30.9072337445       63.3856163218       27.4912886275
S               -29.2915719838       62.4197250297       27.7337241754
C               -28.5141039454       62.4602739038       26.0815592559
H               -33.7261893510       64.2966085299       30.4935978209
H               -30.9556431040       64.7429874287       29.9351905585
H               -32.0132627556       62.6297000607       29.2398233190
H               -32.9776584716       63.5021204352       28.0446267397
H               -31.3351851803       62.9247639973       26.6027582509
H               -30.5483256517       64.3776593260       27.2401300302
H               -27.5557335635       61.9726982751       26.2118052724
H               -29.1480144946       61.9094285890       25.3925250833
H               -28.3830529550       63.4955328345       25.7848411746
N               -32.9027866165       66.7767308012       28.3079157578
C               -32.7233048876       68.1072289287       27.7622283378
C               -31.7160154399       68.9351274612       28.5452816688
O               -30.7035340790       69.3720617537       27.9943343328
C               -33.9314375334       69.0387312435       27.7583605139
C               -34.9475485160       68.8889796280       26.6235738014
C               -35.5309202766       70.2670326932       26.2803199051
C               -34.3782093280       68.2086988649       25.3882973122
H               -33.7525648002       66.6459754585       28.8542122749
H               -32.2945844497       68.0028445264       26.7582238993
H               -34.4346335030       68.9582106293       28.7206625910
H               -33.5123808086       70.0491644704       27.6956011662
H               -35.7675950014       68.2562925914       26.9859284178
H               -36.2588109156       70.1796573151       25.4786038205
H               -36.0217871270       70.6824142806       27.1575408758
H               -34.7523264550       70.9583828636       25.9752947459
H               -35.1316146590       68.1707350414       24.6039554051
H               -33.5217229090       68.7568846908       25.0015379929
H               -34.0638981400       67.1923289654       25.6049277738
N               -28.0428567972       68.0646769991       28.4014457113
C               -27.5261871961       68.3129583069       27.0727645879
C               -27.4565260160       69.8314184459       26.8012264025
O               -27.4385485696       70.3026313425       25.6684723839
C               -28.4182251644       67.6760686242       26.0038968554
C               -28.3036102624       66.1284646892       25.7592190978
O               -27.5002647275       65.4438695592       26.4114069198
O               -29.0486147698       65.7084034919       24.8380725700
H               -29.0532780453       68.1042904283       28.4653671811
H               -26.5088103812       67.8998056807       27.0285450317
H               -29.4602354730       67.8729241993       26.2653576872
H               -28.2139484739       68.1571043990       25.0441995943
N               -29.2143767679       72.5142321525       26.2919315499
C               -30.5875805513       72.6976133827       25.8764524572
C               -31.4837798511       73.0246870128       27.0983837153
O               -32.1813925924       72.1791576801       27.6344197044
C               -31.1125242817       71.4480581421       25.1580778817
C               -30.1658736884       70.9860661731       24.0466188572
C               -32.4876236881       71.7693092012       24.5893140188
C               -30.6516778250       69.7160412729       23.3600361950
H               -28.6299772538       71.9292554574       25.6979766835
H               -30.6237252569       73.5609096986       25.2064786764
H               -31.1938317942       70.6595147062       25.9168952130
H               -30.0666417148       71.7864109205       23.3106434309
H               -29.1831202984       70.7509253477       24.4537312965
H               -33.0533061164       70.8604185252       24.4056205455
H               -33.0555151677       72.3863402912       25.2796662572
H               -32.3850664681       72.3078184212       23.6600814389
H               -29.9211645988       69.3728908513       22.6324621671
H               -30.7874952264       68.9231963081       24.0950300115
H               -31.5994013305       69.8730544614       22.8524635245
N               -31.5316837852       74.3418473717       27.4374067089
C               -32.6874785429       74.9213988520       28.1292074764
C               -33.9375072960       74.7926217658       27.2249085557
O               -33.8389666626       74.5468585941       26.0214791657
C               -32.4038702741       76.3912156802       28.4530544222
C               -33.5857930767       77.1756380136       29.1538490431
O               -33.5772450042       77.1910590308       30.4007613804
O               -34.4124334361       77.7217688865       28.4057533150
H               -31.0942112301       74.9992218104       26.8068456014
H               -32.8724048829       74.3490881579       29.0433134053
H               -31.5408087874       76.4547788325       29.1171080745
H               -32.1941510880       76.9230161943       27.5195251563
N               -37.0857885850       77.8840494201       22.8355317852
C               -36.6660467411       77.6912848696       21.4647218253
C               -36.5169772842       76.2134052741       21.1639012579
O               -37.0404057353       75.7006622422       20.1838921113
C               -35.2888310135       78.3614630402       21.3055084630
C               -34.5095014245       78.0345775494       20.0317977835
C               -32.9815384947       78.4188544766       20.2359689111
O               -32.3060155672       77.6296784702       20.9247614896
O               -32.5809326908       79.4717304911       19.7036754320
H               -36.6294328279       78.6295811049       23.3412178894
H               -37.3972024649       78.1207942795       20.7705512781
H               -35.4116639062       79.4453320365       21.3650501971
H               -34.6643010919       78.0510740833       22.1514369618
H               -34.5429481742       76.9654065645       19.8171025397
H               -34.9025995827       78.5848063089       19.1772173776
N               -35.6688679691       75.5576384875       21.9494390108
C               -35.2350050329       74.2389016982       21.5703612173
C               -36.4867006498       73.4183498245       21.3938127170
O               -36.6875211696       72.7089618051       20.4086638136
C               -34.1882865137       73.7550644138       22.5625171323
C               -32.8824208627       74.4953145430       22.2214538640
C               -32.0103456582       74.8703576581       23.4180045538
C               -32.0702292466       73.7001323607       21.2035449664
H               -35.2917517792       75.9531716649       22.7950376434
H               -34.7778189873       74.3000013160       20.5679097237
H               -34.5161068152       73.9703722413       23.5773244046
H               -34.0735379324       72.6768620217       22.4573337795
H               -33.1602494861       75.4417846762       21.7436929942
H               -31.1964706447       74.1639146592       23.5218254908
H               -31.6013837329       75.8659245647       23.2495818887
H               -32.5918646757       74.8928343736       24.3329950640
H               -31.2371550520       74.3013821198       20.8505019107
H               -31.6946461791       72.7754891258       21.6347318423
H               -32.6871460225       73.4506201009       20.3416125615
N               -37.6709887340       74.0679250940       18.2648032237
C               -36.8556545720       73.6572044416       17.1528189751
C               -37.5918417250       72.5887697208       16.3617154984
O               -37.5442675105       72.4984106261       15.1395531311
C               -35.5550470107       72.9955361253       17.6202475652
O               -35.7580870171       71.7170034330       18.1331949787
H               -37.2398434298       74.2725239145       19.1557478813
H               -36.6346360529       74.5117432022       16.4982345420
H               -34.8973616802       72.8937943594       16.7520163152
H               -35.0697898468       73.6561675432       18.3533718331
H               -36.1275334221       71.8229981981       19.0289584619
N               -38.1806968784       71.7007851288       17.1630056252
C               -38.9575094468       70.6097430335       16.6528678458
C               -40.4453833622       71.0268155742       16.5282836409
O               -41.3408432684       70.3249927183       16.9631499397
C               -38.7688456304       69.3518771626       17.5118301904
C               -38.0306048690       68.2544383935       16.7622802892
S               -38.0663253436       66.6509475979       17.6091206121
C               -39.8500590898       66.2898145880       17.6190093479
H               -38.2840806564       71.9139316471       18.1480406787
H               -38.6094584157       70.4410406421       15.6239342084
H               -38.2312405542       69.6206441083       18.4216174383
H               -39.7673828674       69.0113380457       17.7982249690
H               -38.4670167392       68.1141366871       15.7717123160
H               -36.9742347325       68.4973972628       16.6590737744
H               -39.9669155708       65.2476705380       17.8938309257
H               -40.3482049804       66.9163531655       18.3540940447
H               -40.2653441582       66.4810869981       16.6341048448
H               -18.9616635943       70.6215703496       15.8349912989
H               -41.1884778253       60.8501621580       19.2534171143
H               -32.5767119611       64.9384481912       31.2578931123
H               -31.8728042777       69.1283548964       29.5138271859
H               -27.7920757689       67.2440237322       28.6728072621
H               -27.4239422197       70.4751019414       27.5658242405
H               -28.8020832095       73.3134347309       26.3278378220
H               -34.8509027277       74.9094680625       27.6148517929
H               -37.9655690536       78.0725703379       22.8566550071
H               -37.1990366064       73.4356908953       22.0954370981
H               -38.1070121560       74.8264099748       18.0536533694
H               -40.6874060021       71.8888938898       16.0830353737
