 37 
 
N                -2.9490000000       26.0810000000        7.4960000000
C                -2.8730000000       25.0750000000        6.4440000000
C                -1.5680000000       25.0450000000        5.6750000000
O                -0.7630000000       25.9800000000        5.7500000000
H                -2.0300000000       26.3900000000        7.8140000000
H                -3.0150000000       24.0910000000        6.8910000000
H                -3.6740000000       25.2580000000        5.7270000000
N                -1.3600000000       23.9480000000        4.9280000000
C                -0.2180000000       23.7580000000        4.0440000000
C                -0.8220000000       23.5120000000        2.6540000000
O                -1.5320000000       22.5170000000        2.4870000000
C                 0.6490000000       22.5880000000        4.5000000000
O                 1.9880000000       22.7470000000        4.0580000000
H                -1.9950000000       23.1500000000        4.9210000000
H                 0.4410000000       24.6260000000        4.0310000000
H                 0.6380000000       22.5420000000        5.5890000000
H                 0.2460000000       21.6650000000        4.0840000000
H                 2.5320000000       21.9890000000        4.3580000000
N                -0.6840000000       24.4420000000        1.6760000000
C                 0.0940000000       25.7010000000        1.6950000000
C                -0.5400000000       26.8320000000        2.5180000000
O                -1.6530000000       26.6730000000        3.0220000000
C                 0.2030000000       26.0550000000        0.2060000000
C                -1.0680000000       25.5250000000       -0.3770000000
C                -1.3070000000       24.2270000000        0.3530000000
H                 1.0900000000       25.5270000000        2.1030000000
H                 0.2760000000       27.1350000000        0.0800000000
H                 1.0730000000       25.5690000000       -0.2350000000
H                -1.8820000000       26.2290000000       -0.2010000000
H                -0.9460000000       25.3560000000       -1.4470000000
H                -2.3750000000       24.0350000000        0.4570000000
H                -0.8280000000       23.3980000000       -0.1680000000
O                -0.0410000000       18.9820000000        2.9860000000
H                 0.6330000000       19.4830000000        2.9860000000
H                -0.7160000000       19.4820000000        2.9860000000
H                -3.3910377574       26.8028085713        7.1900669887
H                -0.0496421021       27.6944278182        2.6435682699
