 316 
 
N                44.6978825642       44.2821063067       90.8879163778
C                43.9336952037       43.2306813127       91.5265032413
C                42.5561210475       43.1082721758       90.8532803930
O                41.9110569803       44.1095195784       90.5452552251
C                43.7539278964       43.5673710287       93.0045792054
C                45.0313272157       43.9585379969       93.7443474316
C                44.7179232704       44.0739798161       95.2270181887
C                46.1209022095       42.9261429503       93.5456188111
H                44.4182643986       45.2291628938       91.0921207537
H                44.4880614261       42.3000452989       91.3967484139
H                43.0407573630       44.3931598767       93.0787104976
H                43.3072243520       42.6961878370       93.4895132882
H                45.3876735403       44.9213737584       93.3654967169
H                45.5512997474       44.5168651207       95.7628864555
H                43.8422653386       44.6987577858       95.3896511968
H                44.5182751531       43.0860737493       95.6308936298
H                46.9712654681       43.1448729583       94.1845487471
H                45.7396924615       41.9379720931       93.7907477325
H                46.4864546250       42.9382837791       92.5232946543
N                39.7696687354       35.5854227816       93.8163428286
C                40.6188565043       36.7681238106       94.0097287852
C                42.0208677874       36.5457524587       93.4308226820
O                42.6436109560       35.5063241680       93.6386966787
C                40.6674537265       36.9444961114       95.5353962138
C                40.4614374694       35.5239349780       96.0450951057
C                39.4100416666       34.9749800711       95.0823820698
H                40.1734748850       37.6333755065       93.5071064807
H                41.6036419398       37.3832439463       95.8774810380
H                39.8505735876       37.5917479478       95.8543351482
H                41.3901051653       34.9599037797       95.9425501232
H                40.1475377788       35.4826050425       97.0856696609
H                39.4322514674       33.8888629590       95.0286213622
H                38.4082246591       35.3040970204       95.3831205543
N                45.2378576630       34.4004537349       94.4644454771
C                45.5725091430       34.4197619920       95.8652615234
C                45.0760880273       33.1596308970       96.5429325242
O                44.1986380528       32.4488641954       96.0576307147
C                44.9757047612       35.6245734299       96.5588269104
C                45.6073585769       36.8893207735       96.0659730269
C                46.8372106104       37.2739503337       96.5728043705
C                44.9599297533       37.7021597677       95.1430822785
C                47.3762094948       38.4838574128       96.1818938787
C                45.5136710678       38.8981695615       94.7296946814
C                46.7215743487       39.2975433645       95.2686816376
H                44.4046382482       34.8956677230       94.1528929332
H                46.6664573439       34.4475531429       95.9545002606
H                43.8960253176       35.6411258754       96.3956268595
H                45.1777422051       35.5411990810       97.6263956045
H                47.3389779541       36.6507588869       97.2974475289
H                43.9895467436       37.4054075268       94.7810791548
H                48.3153833885       38.8134173995       96.6038492967
H                44.9879972345       39.5177603326       94.0198439548
H                47.1739779451       40.2401074646       95.0030260252
N                39.0410809190       44.3323170497       91.1101557486
C                38.6810588242       43.7704677779       92.4056430845
C                37.8546737682       44.7349831038       93.2426735213
O                36.8327936772       44.3765984395       93.7991489566
C                39.9056311181       43.3544342138       93.2260508312
C                39.6580728389       43.3672078746       94.7162681551
C                39.0910305107       42.2958197573       95.3939776000
C                40.0775072406       44.4523168888       95.4687395449
C                38.9174550714       42.3107925156       96.7656398919
C                39.9326915221       44.4741275118       96.8405353550
C                39.3366378163       43.4100233395       97.5106755313
O                39.1508131314       43.4402455656       98.8576951911
H                40.0275993554       44.2967482234       90.8319237031
H                38.0319279468       42.9008327144       92.2352028376
H                40.2221363274       42.3574186611       92.9109792820
H                40.7162981396       44.0517351296       93.0041140451
H                38.7981021558       41.4213284318       94.8345590263
H                40.5481347631       45.3034460122       94.9959231227
H                38.4714750845       41.4712585077       97.2738494519
H                40.2590089929       45.3506979295       97.3843049570
H                39.5364877563       44.2505683909       99.2172086363
N                39.0319725115       31.3816086992      101.2579844157
C                38.9707443975       32.2464453786      102.4271880610
C                40.3016256337       32.9614460209      102.6977402160
O                40.3367209322       34.0777449545      103.2020298968
C                38.6610127701       31.4373005687      103.6969058273
O                37.5572782474       30.5938522628      103.5079957586
H                38.9495280454       30.3891100417      101.4281342581
H                38.2046179407       33.0144097256      102.2688792328
H                39.5506218889       30.8433149784      103.9480360080
H                38.4983498718       32.1476887911      104.5233682547
H                37.5793849265       29.8909662725      104.2145296801
N                41.3670532114       32.2325249779      102.3445769174
C                42.7542607619       32.6271437038      102.5011557701
C                43.0632818198       33.6378940830      101.3857371736
O                43.5838451112       34.7244194225      101.6168837261
C                43.6395847857       31.3874737401      102.4692903847
C                43.3286368068       30.4265681453      103.6161878056
C                42.0189839017       29.5448274816      103.5306750546
O                41.3730800410       29.4807315809      102.4571088573
O                41.7164955085       28.9331434784      104.5781611646
H                41.2341803246       31.2334472524      102.1436485865
H                42.8810616280       33.1626758774      103.4548771411
H                43.5005816321       30.8829794606      101.5082795645
H                44.6823420826       31.7057503519      102.5351662089
H                44.1451134312       29.7065924906      103.7101697053
H                43.2758396090       30.9722504015      104.5606028037
N                42.6269355701       33.2926152662      100.1762590313
C                42.7115069849       34.2122368604       99.0661969938
C                42.1036415951       35.5909125118       99.3895131829
O                42.7257070724       36.6201066599       99.1649122418
H                42.3037069830       32.3469032370       99.9806841838
H                43.7561584039       34.3897215049       98.7931887903
H                42.1790801902       33.7710213208       98.2243829444
N                40.8428459331       35.5936134778       99.8474592777
C                40.2138024335       36.8694506081      100.1277331590
C                41.0676911814       37.5912093719      101.1557569935
O                41.2988655744       38.7923494880      101.0963154476
C                38.8082431528       36.7706768444      100.7006768421
C                37.7623647617       36.0788102850       99.8282474106
C                36.4976974402       35.9419514914      100.6638437461
C                37.4545460028       36.8442237024       98.5490088743
H                40.3571690709       34.7233497150      100.0299671185
H                40.2354733625       37.4792381966       99.2157822499
H                38.8778974366       36.2351894660      101.6531708656
H                38.4840446699       37.7909444388      100.9178146341
H                38.1341609604       35.0819507232       99.5665065127
H                35.7070653898       35.4629463382      100.0938592736
H                36.6913251025       35.3567010044      101.5613628274
H                36.1403165437       36.9216467959      100.9750921710
H                36.7402861349       36.2863061136       97.9499023810
H                37.0348797339       37.8178286170       98.7932100473
H                38.3573583707       36.9941699142       97.9628698857
N                41.5134174309       36.8150534433      102.1627037507
C                42.2573433695       37.4769486255      103.2096946583
C                43.5253349607       38.1294600816      102.6393708648
O                43.9546492559       39.1728455896      103.1128711396
C                42.5992636947       36.5782189103      104.4042895210
C                43.3528514930       37.3918530762      105.4132277646
C                42.8262150598       38.1891552499      106.3888507105
C                44.7625251457       37.6334600650      105.4230446164
N                43.8157827611       38.8681132279      107.0445568855
C                45.0061083274       38.5745010614      106.4496035976
C                45.8280636106       37.1776399427      104.6507680441
C                46.2875297943       39.0160020133      106.7460233239
C                47.0952334756       37.6267256864      104.9438116366
C                47.3276075022       38.5254686412      105.9880100990
H                41.2149910073       35.8602470052      102.3078280860
H                41.6586798723       38.3252736774      103.5825387279
H                41.6722128277       36.1820296768      104.8227699742
H                43.2096559195       35.7452855867      104.0451957690
H                41.7976485179       38.3143675274      106.6716103762
H                43.6501024781       39.6816780621      107.6163365966
H                45.6569591835       36.4857677213      103.8359992528
H                46.4307097508       39.7257402403      107.5458512585
H                47.9241870037       37.2787222367      104.3436918538
H                48.3382175874       38.8488531975      106.1751357065
N                44.1175017946       37.5216862835      101.6025642853
C                45.3814478729       38.0192570229      101.1180762532
C                45.2911566738       39.3707060264      100.4071894077
O                46.2645357866       39.7568690428       99.7697538763
C                46.1321089117       37.0262065034      100.2421503009
C                46.8281475683       35.9225030025      101.0197221781
C                47.5013974820       34.8716063378      100.0913828756
O                47.2423330404       34.9211042991       98.8656324940
O                48.2462597253       34.0143951020      100.6200920234
H                43.8075486593       36.5937613212      101.3379440048
H                46.0071379378       38.2670733441      101.9989973786
H                45.4195013352       36.5887355013       99.5402857389
H                46.8702466374       37.5840403112       99.6613499043
H                47.5907889584       36.3271756087      101.6897204938
H                46.1026136067       35.3728482192      101.6277922452
N                44.2446256001       40.1757310499      100.6286573535
C                44.3425737120       41.5904256232      100.3120584482
C                43.8893534924       42.5582420590      101.4616915058
O                42.7438368858       42.9967622077      101.5061726680
C                43.5719861703       41.8964295065       99.0092507844
C                43.8209354418       40.8365332839       97.9365101349
C                43.9913623204       43.2852618910       98.5371600939
C                42.8579064273       39.6728607321       97.9972876045
H                43.4085769085       39.8477324009      101.0842926706
H                45.4085422186       41.7825438405      100.1332961183
H                42.5050085436       41.9081791981       99.2577092019
H                43.7075201741       41.3106093602       96.9590423485
H                44.8469822647       40.4705157254       98.0038431243
H                43.4310568569       43.5659919516       97.6514503061
H                43.7932493055       44.0170144002       99.3168721926
H                45.0516847818       43.2992708475       98.3216965331
H                43.1003284368       38.9511226236       97.2183106904
H                42.8921692910       39.1403681623       98.9411186197
H                41.8362292284       40.0197519146       97.8480260384
N                44.8011457143       43.1645345345      102.2888495304
C                45.8365507816       42.7116749888      103.2269024142
C                47.2986735588       42.5950227614      102.7999968825
O                48.1387044710       43.2357212899      103.4118980203
C                45.5275508212       41.3932758261      103.9509005162
C                44.1726901905       41.3979578529      104.6388011266
C                44.0690977431       42.2722644168      105.9104347350
O                44.8519085088       43.2395950504      106.0436400035
O                43.1728451285       41.9232072889      106.7156774046
H                44.2793579098       43.8951034800      102.7660848536
H                45.8570688579       43.4822831282      104.0058505740
H                45.5588754250       40.5621228817      103.2479947293
H                46.3022806315       41.2418174189      104.7056923324
H                43.3894273866       41.7303688944      103.9508382106
H                43.9085999010       40.3868026628      104.9297056089
N                47.6367765092       41.6902886541      101.8605894511
C                49.0189764282       41.3725805013      101.5140308734
C                49.0592098820       41.2056039273      100.0051716391
O                49.3863353294       40.1798780557       99.4353828106
C                49.4935539787       40.1099342830      102.2387255019
C                50.9778185979       39.8374703747      102.0208682171
O                51.6847423027       40.4957650209      101.2846211144
N                51.4532205507       38.7966100765      102.7254646335
H                46.9363939801       41.1288559538      101.3989305277
H                49.6459259993       42.2219945899      101.8100894655
H                49.2929098800       40.2159043045      103.3060765741
H                48.9391552112       39.2528558906      101.8474875777
H                52.4135881704       38.5290862487      102.5925870197
H                50.8474220179       38.2028898450      103.2629898813
N                48.5750838891       42.2301899133       99.3150586870
C                48.3585635332       42.0059240213       97.9181256516
C                49.5809031907       41.6427849172       97.0861118210
O                49.3688684866       41.0466899247       96.0248086722
C                47.6519308465       43.1789557521       97.2527019970
C                48.2700311089       44.5053410381       97.6554273806
O                48.5235934142       44.7661172271       98.8334481172
N                48.4687996626       45.3844289640       96.6607834402
H                48.4651279265       43.1741885871       99.6759782809
H                47.7207844309       41.1100124795       97.8324158911
H                47.6748954297       43.0306119271       96.1738609361
H                46.6128664658       43.1913021401       97.5817550749
H                48.8900326408       46.2746897049       96.8805416417
H                48.3204204466       45.1385942969       95.6961648512
N                46.4865435683       38.9614954524      113.6629503825
C                45.5006188666       38.7403250363      112.6315024479
C                46.1105844500       38.1901027831      111.3579700940
O                45.8078976099       38.6471800978      110.2666568706
H                46.7725238818       39.9234509432      113.7841257504
H                44.7699544088       38.0125948796      113.0043210061
H                45.0015340366       39.6849587884      112.4123297859
N                47.0129662413       37.2212497045      111.5727859834
C                47.7064500505       36.5463273511      110.4928368784
C                47.0230609385       35.2135958763      110.2387434992
O                46.6551307373       34.5383846044      111.1914944924
C                49.1710994796       36.2865281747      110.8617544120
C                49.9465375949       37.5847831618      111.0704210623
C                50.1332969064       38.3738175419      109.7697466890
C                50.4444512896       39.8350638017      110.0762200178
N                50.6242200168       40.6127275608      108.8303641961
H                47.0281579381       36.7631467220      112.4747899348
H                47.6157389841       37.1934939920      109.6202894306
H                49.1866088612       35.6920228989      111.7753637103
H                49.6251328225       35.6960776148      110.0656027539
H                49.4096905741       38.2052374460      111.7898284782
H                50.9216414111       37.3555088776      111.4965881451
H                50.9402777203       37.9281297161      109.1878124484
H                49.2212147309       38.3321738111      109.1733344179
H                49.6297765841       40.2675064675      110.6544681496
H                51.3550843686       39.9171689157      110.6691840521
H                50.9048641870       41.6889491244      108.9985668590
H                51.3806708818       40.2085846231      108.2704112545
H                49.7676504111       40.6036148875      108.2710573738
N                46.8499372794       34.8196708340      108.9677273407
C                46.1349977610       33.5717489331      108.7188795702
C                46.8031551834       32.4275050459      109.4587266209
O                47.8991832959       32.5109369391      109.9672285606
C                46.0964871715       33.4269303537      107.2003330974
C                46.0643720669       34.8835688991      106.7489512173
C                46.9874105282       35.5972068841      107.7436271692
H                45.1123407734       33.6689312902      109.1157995228
H                47.0084252819       32.9438511135      106.8490506881
H                45.2323990219       32.8630703480      106.8590226215
H                46.3979691942       35.0100984726      105.7245645569
H                45.0530164926       35.2825279473      106.8305968876
H                48.0251435320       35.5721139523      107.4006034801
H                46.6734336477       36.6308618165      107.8848726971
N                40.4580253523       31.3816086992      108.9400136311
C                40.5192534663       32.2464453786      107.7708099859
C                39.1883722300       32.9614460209      107.5002578309
O                39.1532769316       34.0777449545      106.9959681501
C                40.8289850937       31.4373005687      106.5010922196
O                41.9327196164       30.5938522628      106.6900022883
H                40.5404698183       30.3891100417      108.7698637888
H                41.2853799231       33.0144097256      107.9291188141
H                39.9393759748       30.8433149784      106.2499620389
H                40.9916479920       32.1476887911      105.6746297922
H                41.9106129372       29.8909662725      105.9834683668
N                38.6471519307       35.5936134778      110.3505387692
C                39.2761954303       36.8694506081      110.0702648879
C                38.4223066824       37.5912093719      109.0422410534
O                38.1911322893       38.7923494880      109.1016825993
C                40.6817547110       36.7706768444      109.4973212048
C                41.7276331020       36.0788102850      110.3697506363
C                42.9923004236       35.9419514914      109.5341543008
C                42.0354518609       36.8442237024      111.6489891726
H                39.1328287928       34.7233497150      110.1680309283
H                39.2545245013       37.4792381966      110.9822157969
H                40.6121004272       36.2351894660      108.5448271812
H                41.0059531939       37.7909444388      109.2801834128
H                41.3558369034       35.0819507232      110.6314915341
H                43.7829324739       35.4629463382      110.1041387733
H                42.7986727612       35.3567010044      108.6366352195
H                43.3496813201       36.9216467959      109.2229058759
H                42.7497117289       36.2863061136      112.2480956658
H                42.4551181299       37.8178286170      111.4047879996
H                41.1326394931       36.9941699142      112.2351281611
H                45.5601937748       44.2212684423       91.1383522585
H                42.1725780326       42.2052189467       90.6599164329
H                39.0504574675       35.8092694005       93.3237701505
H                42.4485598203       37.2548014945       92.8701721761
H                45.9099013611       34.7654441899       93.9899570835
H                45.4645165361       32.8774388228       97.4201388436
H                38.5970029391       43.8965795549       90.4598269214
H                38.1474590252       45.6856829919       93.3448817207
H                38.3626876702       31.5911446970      100.6939343587
H                50.4955188759       41.8873959390       97.4080490766
H                46.1582159232       38.6897096055      114.4556252281
H                46.3358773527       31.5476727422      109.5455974804
H                41.1273101936       31.5911446970      109.5040636882
H                38.3246106810       32.5163618810      107.7365121320
H                38.4477167900       35.5430212477      111.2267043077
H                38.0234982027       37.0836878116      108.2784520364
