 110 
 
N                24.0324754896       37.6774804839       15.3474980407
C                23.4383210420       36.8128636978       14.3327066516
C                22.5893055194       35.7285311951       14.9760255158
O                22.8228273045       35.2497460805       16.0745378283
C                24.5728776187       36.1203966562       13.5587542612
C                25.3969368905       37.1382489893       12.7873544717
C                26.6736093463       36.5045116632       12.2457491295
O                27.1185772518       35.4403464595       12.6902520111
N                27.2200658383       37.1585589598       11.2398103653
H                24.6127473354       37.2691022292       16.0830628944
H                22.8384486285       37.4396391982       13.6714704764
H                25.2077705346       35.5946404186       14.2696036114
H                24.1576709278       35.3858286230       12.8685237215
H                24.8343361324       37.5654314612       11.9581120075
H                25.7002133389       37.9597248153       13.4410970921
H                26.8676758848       38.0625938870       10.9387763252
H                28.0982789917       36.8487960128       10.8483004546
N                29.2010108914       32.3511263875        5.2247678628
C                28.6783948308       33.6109550266        5.6959737333
C                29.2269161471       34.7050785481        4.7602433916
O                30.4197454633       34.7864452832        4.4844308781
C                29.0640629444       33.8629096563        7.1378792157
C                27.9932548437       33.2352001703        8.0669956055
C                28.0792833464       31.6963210809        8.1636757243
C                28.0131091554       33.8542760095        9.4228821092
H                30.1133859690       32.0667915610        5.5520656214
H                27.5936738950       33.5889201382        5.5583158463
H                30.0542319374       33.4551355552        7.3395588051
H                29.0900561386       34.9365517430        7.3212044373
H                27.0205874929       33.4709308338        7.6142536347
H                27.2598395293       31.3198202962        8.7673998434
H                28.0248024489       31.2391984426        7.1803338830
H                29.0146949587       31.4017396029        8.6319797816
H                27.2397391421       33.4292430536       10.0580630699
H                28.9687034005       33.6836521138        9.9136010066
H                27.8492947208       34.9275234315        9.3627155580
N                29.9327947927       38.6515668962        3.7472967886
C                30.0755410613       39.9873378025        4.2945006604
C                29.5576518120       40.9749422905        3.2444552186
O                30.0654499691       41.0097363549        2.1148114830
C                31.5841912026       40.2589704271        4.5039146465
O                31.7977561257       41.5986143718        4.9332562911
H                30.7472163934       38.2260246286        3.3154739813
H                29.5205700398       40.0713853842        5.2313521707
H                31.9914636552       39.5466839454        5.2267764052
H                32.0937165008       40.1666815472        3.5447619728
H                31.3020503908       41.7242228848        5.7592500769
O                32.7827558840       34.1605272981        5.4522913221
H                32.6839263265       34.7531617177        6.2128949724
H                31.9385856122       34.2421371396        4.9854519591
O                28.2563306640       39.8232538851        8.4273912909
H                28.8433408977       40.5744635763        8.5921979673
H                27.5722002230       39.8424820496        9.1405183273
O                29.7208919640       37.3539141215        9.7019125676
H                30.6516571642       37.4225166765        9.4709416689
H                29.2723013194       38.0647253093        9.2174922373
O                32.1882912833       36.1071414380        7.3036116836
H                32.9413999917       36.7330900338        7.2287642728
H                31.4030629209       36.5696461969        7.0033167249
O                30.9222999587       35.9305704058       11.6920194527
H                31.5921387759       35.6716153866       11.0418303170
H                30.2856929518       36.4778245679       11.2253630429
O                33.3273543014       40.2154608620        8.1899728235
H                33.4334520787       40.3607119265        9.1424907377
H                33.8310651540       40.9095724481        7.7354747201
O                34.2168323200       37.7892668570        7.2702708030
H                34.7693100089       37.9628036297        6.5045097833
H                33.9064527858       38.6717417883        7.6015662991
O                32.5490431685       35.0964803746        9.7507322850
H                32.2795840575       34.1633837577        9.6449102466
H                32.4171299846       35.4835801073        8.8665476695
N                37.4924625479       34.0065426151        7.0714298063
C                36.2867065331       34.6413305214        7.5935559230
C                36.5351212744       35.2998932423        8.9457624118
O                37.3057758130       34.8090639384        9.7661014934
C                35.3515831166       33.4449530499        7.8779259104
C                35.8669627087       32.3313547389        6.9524867177
C                37.3764932485       32.5709181248        6.9048212706
H                35.8793383714       35.3405843819        6.8627028119
H                35.4469137722       33.1261883211        8.9157943845
H                34.3123562570       33.6768242248        7.6657429735
H                35.6253002164       31.3347491460        7.3061614786
H                35.4453967659       32.4634502319        5.9572293322
H                37.8906703608       32.0405406085        7.7135663031
H                37.7962561414       32.2338231441        5.9576214506
N                35.6680513028       36.2663480692        9.2728837786
C                35.7332285556       36.8842876376       10.5946945357
C                35.6639156222       35.8989333792       11.7532813267
O                36.3909041497       36.0777237195       12.7358948033
C                34.6000902531       37.9309022018       10.6963402530
C                34.6309696839       38.6281241323       12.0132068634
C                33.6880783413       39.8480982565       12.0078395819
O                33.4592695424       40.4510317905       10.9638022427
N                33.1861489279       40.2131573626       13.1839003380
H                35.0975089009       36.7254537214        8.5630044163
H                36.7026830785       37.3923875126       10.7110602910
H                34.7303318857       38.6497117772        9.8874220015
H                33.6479848864       37.4177247974       10.5614472245
H                34.3340202685       37.9628263322       12.8234931090
H                35.6378550091       38.9943429007       12.2307488908
H                33.3037803358       39.6335710846       14.0098423448
H                32.4626463290       40.9139731326       13.1929056289
H                24.5712822904       38.2796130332       14.9511098162
H                21.7894173747       35.3688847464       14.4955742821
H                28.6462507320       31.6856933573        5.4685711601
H                28.6048858959       35.3765873026        4.3575594470
H                29.6903551197       38.0831813181        4.4016367916
H                28.8063848771       41.5954753537        3.4692589334
H                37.7093597094       34.3781128652        6.2809292241
H                35.0365647747       35.1213202943       11.7114626196
