 126 
 
N                57.4725875145       94.0610469037      106.4634431489
C                58.2668272303       93.5073974132      107.3892235219
C                58.0843474802       94.1795348036      108.7391004433
O                57.1968968129       94.8973557494      108.9177802396
C                59.6655943859       93.3856534097      106.9611694583
S                60.8415260186       94.7380288805      107.1424780183
H                57.7612676950       94.9460506339      106.1613092157
H                57.9222902014       92.4591005976      107.5520766226
H                60.1581780894       92.5486737980      107.4690585703
H                59.7269282294       93.0128060036      105.9235375566
H                62.0203577052       94.5140888781      107.1280999084
N                59.0310322285       93.8547119618      109.7039621609
C                58.8514324767       94.4201787144      111.0170952749
C                59.6376372756       95.7084419375      111.2477260716
O                59.3615560929       96.3309924583      112.2800530824
C                59.3250468760       93.3237278626      112.0255755476
H                59.7008405720       93.3846075536      109.5078277382
H                57.9773126228       94.5828737716      111.1332545889
H                59.2075794243       93.6697905844      112.9370679278
H                58.7527196815       92.5610306359      111.9909975468
H                60.2226721489       93.0567391465      111.8626144548
N                60.6454241544       96.0198258560      110.4151965095
C                61.3045230532       97.3465267804      110.4924681160
C                60.2572360047       98.4858119133      110.4777516317
O                59.2159630434       98.3351991961      109.7659323485
C                62.2409094711       97.4514931797      109.3003257973
H                60.8385215596       95.4987206189      109.7742914026
H                61.7915901999       97.3343591751      111.2722134481
H                62.7091231890       98.3046653218      109.3556640827
H                62.9390894073       96.7939168712      109.3503692328
H                61.7905293896       97.3647337932      108.4703557709
N                60.5607099919       99.5588854761      111.1576661120
C                59.6583060818      100.6519667799      111.3788204598
C                59.2220952126      101.3352846785      110.1632012401
O                58.1131020935      101.6442531752      109.9011380911
C                60.1130096417      101.5546658191      112.4785120151
C                60.0149487554      101.1354893775      113.8916101828
C                60.8760706418       99.9524903017      114.2182719759
O                61.6463936407       99.4336034052      113.4312296021
N                60.7371753714       99.4681157795      115.4483429897
H                61.4281716066       99.6776360719      111.5829352025
H                58.7518261303      100.1809630528      111.7877305173
H                61.1581917600      101.7823744616      112.2789464019
H                59.6507325549      102.5172967689      112.3390071057
H                60.2157762069      101.9358584094      114.5535219246
H                58.9846621336      100.9034220296      114.0854066902
H                60.1235804799       99.8564284439      116.1189896029
H                61.2444751820       98.6759120950      115.7644222405
N                60.2608388073      101.5962623048      109.2543429380
C                60.0859327582      102.0498105038      107.9479090851
C                60.3414130229      100.9602629708      106.9260949290
O                61.3666191511      100.8960362825      106.2496033853
C                60.7812310127      103.3129925927      107.6820466553
C                59.9916260593      104.5527645724      107.7993649300
O                59.0007197665      104.6119683283      108.4298316917
N                60.4504164305      105.6062619938      107.1256891853
H                61.1621696837      101.4569631499      109.4952397009
H                59.0287759150      102.3394813795      107.8342593523
H                61.6502693961      103.3575187190      108.3210493463
H                61.2524431491      103.2550082988      106.6970045921
H                59.9893300789      106.4869161652      107.1458040287
H                61.2827096268      105.5979623968      106.5923676556
N                59.3664902093       99.9970079245      106.8447278755
C                59.3569303236       98.9960328631      105.8611393990
C                59.0499059558       99.6831902895      104.5991480594
O                57.9948379603      100.2832898207      104.4747038278
C                58.4771193551       97.8391805433      106.0420065915
S                58.2007184479       96.6986269517      104.6045233040
H                58.6612245153       99.9098161489      107.5117182666
H                60.3520411876       98.5590179373      105.8205835331
H                58.7930350440       97.2646327776      106.9232194911
H                57.5170679111       98.2248179876      106.3801638065
H                57.8009103900       95.5828514049      104.7921357930
N                62.6107286943       90.4247790579      109.1046467551
C                62.7611972667       91.7923357585      108.2689611492
C                63.1110762813       91.4946757948      106.8519698553
O                63.8082937657       90.4739238167      106.6085800969
C                63.8725071521       92.5569661577      108.9133506103
C                63.5921707028       92.7603694176      110.3568470070
C                64.2848458020       91.8669847705      111.2000543189
C                62.6878766919       93.6320740433      110.9440364199
C                64.1031847731       91.9773795000      112.6306740119
C                62.4429889629       93.8292939171      112.2900176848
C                63.1865204086       92.9327085361      113.1566130162
H                63.2942032347       90.1252099738      109.1062396148
H                61.8541965570       92.3360358897      108.3101629119
H                64.6878084213       92.1922016045      108.7509841002
H                63.7502103239       93.5074262071      108.5471097713
H                64.8022746101       91.2959710527      110.9240965000
H                62.2713005361       94.1931397965      110.3243246077
H                64.5390743877       91.4902726322      113.1927593556
H                61.9673202350       94.3745500168      112.5697173873
H                63.0180810628       93.0531366369      114.0112474129
N                65.1670859593       96.6284639058      103.8755579139
C                64.6834953792       97.5332513938      104.9445995914
C                65.6075675986       97.5271005175      106.1298475171
O                65.4597772010       98.4110803505      106.9534219594
C                63.2843328663       96.9627575937      105.4473610214
S                62.1891472593       96.8432928951      104.1978414925
H                64.5465292523       95.9559944002      103.6071297587
H                64.4580104407       98.2712205505      104.4924197644
H                63.4331627975       96.1473635703      105.8516700174
H                62.9886114821       97.5043727097      106.1592247179
H                61.2367030040       96.1207701464      104.3018165770
N                66.4897993447       96.7365030048      106.2794149956
C                67.3892537111       96.6401124787      107.3795732295
C                68.8117892414       97.0188723291      107.0537385511
O                69.7434134876       97.0153628222      107.7048447717
C                67.2276484147       95.3538727682      108.2099073412
C                68.2157921700       95.0804474792      109.0416455554
C                65.9224972197       95.4247825255      108.9332567287
H                66.6231064543       96.0679667441      105.6373523214
H                67.2383997102       97.3593612075      107.9147085940
H                67.2217563466       94.4983912828      107.3585074358
H                68.0996095580       94.2672204640      109.5466811930
H                69.1136239664       94.9682532180      108.5433014752
H                68.2996959271       95.7791264697      109.7345324752
H                65.8495562733       94.5485887091      109.3433886787
H                65.9393787347       96.1505511627      109.5497883748
H                65.1723539550       95.4706968497      108.2946702910
H                57.4444151950       93.5315323144      105.7362426126
H                59.7051475416       99.6585093428      103.8441319568
H                62.3272033662       90.6116692191      109.9381246829
H                62.7936707366       92.0988523993      106.1210633286
H                65.3608935930       97.1093100764      103.1398775748
H                69.0473479612       97.3334671138      106.1342048589
