 539 
 
N                44.4856054892       46.5055614339       81.9020993864
C                45.0401419435       46.2954846100       83.2243445097
C                46.5631799561       46.4944032576       83.2150038168
O                47.2334255470       46.1643102479       82.2462918200
C                44.7599703813       44.8509380217       83.6742576679
C                43.2891849881       44.5829936797       83.8292351433
C                42.5369506426       44.0266220872       82.8036572440
C                42.6469609504       44.8912508100       85.0228033929
C                41.1820692175       43.7813091245       82.9560705022
C                41.3007681094       44.6378966083       85.1911638464
C                40.5508683521       44.0839850353       84.1550842071
O                39.2229694258       43.8566097690       84.3670886837
H                44.5126583079       45.7009872124       81.2901252874
H                44.5796427132       47.0049235531       83.9171711050
H                45.1972075156       44.1635120221       82.9463722945
H                45.2594163217       44.7044650469       84.6326953662
H                43.0181536410       43.7498817418       81.8793135621
H                43.2100102618       45.3403993078       85.8283691457
H                40.6056341906       43.3511387927       82.1499793175
H                40.8168396737       44.8615860385       86.1287260374
H                38.8135090117       43.4510475482       83.5904131223
N                47.0764222244       47.0478954455       84.3232235905
C                48.5008644481       47.0603939528       84.5559797206
C                48.9293619278       45.9331218975       85.4887029252
O                48.1686884441       45.2526005918       86.1601639355
C                48.9622782955       48.4278410351       85.0803910980
C                48.9891762994       49.4376921851       83.9304132338
C                49.6646444073       50.7585776033       84.3167818202
C                50.1122615881       51.5435364524       83.0881209188
N                48.9457376037       51.9313574368       82.2443819993
H                46.4573836424       47.1950486116       85.1185650355
H                48.9610598046       46.8598777266       83.5771570450
H                48.2768593680       48.7332367351       85.8747362203
H                49.9516584254       48.3355436932       85.5316602888
H                49.5419700516       48.9759893371       83.1082644517
H                47.9556026649       49.5892059230       83.6170591045
H                48.9954674254       51.3525684746       84.9385166809
H                50.5484943546       50.5386883748       84.9148346949
H                50.6384223861       52.4470039660       83.3958101591
H                50.7808199161       50.9256224496       82.4870987172
H                49.2595198036       52.4650789769       81.4212703684
H                48.4532201602       51.0852178522       81.9218914745
H                48.2879959881       52.5072505173       82.7912006543
N                50.2638317094       45.6854967521       85.4401446336
C                50.8791290055       44.7668733937       86.3840916016
C                50.5905762375       45.2999248908       87.7948610321
O                50.6619070855       46.4971500516       88.0263379327
C                52.3801731751       44.7097482142       86.1267682620
S                53.1964524992       43.5698099578       87.3370929502
H                50.8493573033       46.4413538085       85.1109820371
H                50.4235763549       43.7769247456       86.2649553413
H                52.5883120702       44.3292086211       85.1261668996
H                52.8153411776       45.7011763973       86.2655456841
N                50.3041785181       44.3832221792       88.7230293345
C                49.9001967058       44.7847090701       90.0446172386
C                48.3889739081       44.7846583154       90.2652914159
O                47.9311380540       44.5374124754       91.3719443416
H                50.1411478900       43.4131457085       88.4763255013
H                50.3529998142       44.1292810253       90.7901928304
H                50.2421518176       45.8139417150       90.1952647721
N                47.6281913723       45.0899023680       89.2127648560
C                46.2008617896       45.2650434438       89.3772364673
C                45.5734286379       44.0160105439       89.9901012765
O                45.8441688772       42.8823613345       89.6041489853
C                45.5261326620       45.5286062073       88.0411996207
C                45.8102355431       46.9701892363       87.5027861845
O                46.6273430435       47.6685616022       88.1205419770
O                45.1801267012       47.2813640870       86.4689919982
H                48.0188268727       45.3282111859       88.3133441727
H                46.0329896368       46.1266473712       90.0404938200
H                45.9019307485       44.8311939359       87.2908082415
H                44.4444511432       45.3995201946       88.1238856152
N                44.6725438550       44.2643880204       90.9427439748
C                43.9040012787       43.2396342706       91.6136984361
C                42.5558647946       43.0898565172       90.8926253693
O                41.9288988017       44.0744037673       90.5022563279
C                43.6854355921       43.6342425696       93.0761321539
C                44.9670015594       44.0054747528       93.8320702758
C                44.6226761077       44.2384005193       95.2999837010
C                46.0055176778       42.9019328800       93.7016602555
H                44.4114779741       45.2185179438       91.1378924238
H                44.4619283822       42.3045402889       91.5421867422
H                43.0021594379       44.4861777070       93.1022200814
H                43.2016506312       42.7946196494       93.5792273285
H                45.3816070570       44.9250739705       93.4081640968
H                45.4759648123       44.6410050757       95.8379714846
H                43.8008309672       44.9434668718       95.3981600422
H                44.3254163760       43.3006367950       95.7605946893
H                46.7991976470       43.0294322427       94.4328492692
H                45.5382986438       41.9338145901       93.8652745252
H                46.4638286740       42.9306874297       92.7174520768
N                42.1358120091       41.8379903723       90.7422307309
C                40.9385731508       41.4323520456       90.0420558809
C                40.3037935020       40.2542327659       90.7721742495
O                40.9099538848       39.6119751333       91.6195646214
C                41.2588666366       40.9657598497       88.5954587223
C                41.4241490375       42.1627070534       87.6688608156
C                42.5072482777       40.0877289104       88.5764484793
H                42.6630403343       41.0686840489       91.1573729846
H                40.2278325744       42.2588099916       89.9918366284
H                40.4058610598       40.3770402350       88.2426699174
H                41.7602765311       41.8400539659       86.6874733914
H                40.4746579087       42.6782492711       87.5502615582
H                42.1578601613       42.8617302010       88.0646001797
H                42.6270294305       39.6289309775       87.5985627619
H                43.3934424556       40.6834902328       88.7822090943
H                42.4343501336       39.3014418219       89.3242560145
N                42.5564262029       37.5724619886       92.7541567274
C                43.7565048205       37.3784389616       91.9669560052
C                44.3203734213       38.7417207576       91.5738740002
O                43.7425186415       39.7886647870       91.8413498243
C                43.4316084529       36.5422519888       90.7258208925
H                42.0137683694       38.3959865590       92.5131806371
H                44.5049031014       36.8502619776       92.5693336547
H                44.3419553027       36.2352017322       90.2258584157
H                42.8771889477       35.6555789954       91.0240052923
H                42.8121769957       37.1106323752       90.0360938159
N                45.4798428965       38.7013739795       90.9131960267
C                46.1285079784       39.8903825813       90.4031027575
C                46.8033789555       39.5732621436       89.0741558409
O                47.1169506392       38.4227196296       88.7768245687
C                47.2046099065       40.4259273145       91.3622160265
C                48.2958520770       39.3891037869       91.5611940677
C                49.4285086054       39.8635124450       92.4604478158
N                50.2688259682       38.7058790615       92.7075846856
C                51.3408208477       38.6304393657       93.4825764012
N                51.9290435692       39.7308962266       93.9362362978
N                51.9033974853       37.4443538448       93.6956644947
H                45.9624539334       37.8170370413       90.7954088691
H                45.3684377316       40.6636439313       90.2611127668
H                47.6120163922       41.3527107212       90.9561382375
H                46.7386247007       40.6426268070       92.3220442568
H                47.8392552960       38.5032305941       92.0107204980
H                48.7207301208       39.1054728534       90.5947340537
H                49.9985547344       40.6481671145       91.9551742105
H                49.0353784814       40.2492732848       93.4075625604
H                49.8938286558       37.8211982358       92.3951684347
H                51.5437549917       40.6376276486       93.7326957625
H                52.7197579195       39.6481624875       94.5555510005
H                51.3954963992       36.6039034132       93.4666785820
H                52.5765708742       37.3729031170       94.4504790193
N                47.0293865196       40.6239192034       88.2822914383
C                47.9197628771       40.5188702066       87.1435339530
C                49.3387133416       40.7005310599       87.6766318523
O                49.6224161907       41.6888243410       88.3537166536
C                47.6312316893       41.5696018029       86.0671420447
C                46.2707981431       41.3384822536       85.4060730946
C                48.7480732003       41.5032670113       85.0291411938
C                45.1227310295       41.9677436994       86.1757118099
H                46.8113225799       41.5560078439       88.6251484977
H                47.8321962888       39.5145877245       86.7175372020
H                47.6477772075       42.5617734598       86.5346903187
H                46.2902325648       41.7751814673       84.4056438982
H                46.1093961128       40.2640844022       85.2960075522
H                48.5748876450       42.2279252663       84.2367620069
H                49.7208745600       41.7192706672       85.4711774438
H                48.8111956010       40.5077710368       84.5933867491
H                44.1895011263       41.8238478508       85.6390959678
H                45.0278171321       41.5449644210       87.1701718028
H                45.2850103777       43.0379998499       86.2780350447
N                50.2172907907       39.7325348135       87.4175072407
C                51.5787502732       39.8210424961       87.8828732620
C                52.6161726311       39.9024041721       86.7613824172
O                53.7825034369       40.1426872426       87.0462673104
C                51.9370628408       38.7037837027       88.8541121841
C                51.8322436761       37.3068748042       88.1574841075
O                51.5806384391       37.3118858667       86.9351402917
O                51.9864313662       36.3228653834       88.9030745864
H                49.9730681236       38.9065671813       86.8838301324
H                51.6611601833       40.7873051310       88.4052832272
H                52.9697814573       38.8262555873       89.1809878963
H                51.2794900914       38.7143993055       89.7236930502
N                52.1481384554       39.9181810994       85.5007061312
C                53.0038880876       40.2118563548       84.3673619813
C                52.1337859674       40.9316707214       83.3442426974
O                51.0526068625       40.4599090243       83.0168648181
C                53.5974706800       38.9719157120       83.6862223836
C                54.3437241854       38.0732205114       84.6587277965
C                55.3222673311       37.0743916428       83.9601860680
O                56.1215515564       36.4873640408       84.7174323527
O                55.2463060067       36.9550639120       82.7206651546
H                51.2798080325       39.4451352449       85.2975520463
H                53.8175450083       40.8379181947       84.7482900579
H                52.8001429513       38.4022692230       83.2028226421
H                54.2863630655       39.2884724972       82.8976486511
H                54.9455051433       38.6623885036       85.3544946597
H                53.6549854405       37.4703550518       85.2600703612
N                52.5796498845       42.1186082376       82.8800296939
C                51.8456457969       42.7395334511       81.7814110787
C                52.1742839046       41.9925849926       80.4810624329
O                53.2862724467       41.4957262751       80.3199377276
C                52.1504458181       44.2340425929       81.6236798769
C                51.0488685192       45.0850116566       82.2448758647
S                51.2627255621       46.8657511239       81.9783871842
C                52.7281736493       47.2471974905       82.9946584454
H                53.5707729298       42.3042628956       82.9390995390
H                50.7922372969       42.5847104611       82.0309667375
H                53.1111629873       44.4443315817       82.0982943258
H                52.2485274266       44.4725868203       80.5616381186
H                50.0824218361       44.8663467350       81.7895598026
H                50.9715296722       44.8993320001       83.3167345103
H                52.8805277990       48.3163500556       82.9086367402
H                52.5426078817       46.9680290692       84.0280479106
H                53.5919867714       46.7195913045       82.6048379512
N                51.1981686165       41.9235487552       79.5733268054
C                51.4007074068       41.2947440638       78.2830033564
C                51.9815096884       42.3214856565       77.2994821221
O                52.1143905346       43.4973339733       77.5857162956
C                49.9934664090       40.8676943968       77.8778844509
C                49.1482370388       42.0308922380       78.3969194034
C                49.8480490693       42.4509500664       79.6946262677
H                52.1185800698       40.4754180634       78.3898309339
H                49.9060661679       40.7408126714       76.8031935564
H                49.7199447167       39.9384533525       78.3761864860
H                49.1738651488       42.8529327549       77.6815821174
H                48.1155356847       41.7434215658       78.5781978893
H                49.8658578415       43.5364611030       79.8015204351
H                49.3635981576       42.0004394465       80.5645732863
N                46.5025185503       38.1772063578       80.0162897978
C                47.3407400733       38.6588008754       81.0923793690
C                47.7509210942       37.4442313801       81.9334800394
O                46.9629583643       36.5163943760       82.0545685358
C                46.5337981063       39.6214677290       81.9856353235
C                46.0184957495       40.8303829496       81.2493106686
C                44.8709665953       40.7535798319       80.4672048797
C                46.6521376411       42.0618502220       81.3678148253
C                44.3736217712       41.8757317366       79.8298097657
C                46.1614720756       43.1963029652       80.7434789179
C                45.0076947995       43.1046676059       79.9741928969
O                44.4981158404       44.2435885083       79.3997636829
H                45.6186158314       37.7572787065       80.2878330514
H                48.2104791245       39.1543141224       80.6535157775
H                45.6871503494       39.0619206730       82.3918617533
H                47.1627169002       39.9302947534       82.8219908122
H                44.3485081763       39.8146861959       80.3753198963
H                47.5324098653       42.1491917652       81.9876095965
H                43.4750350462       41.8001038292       79.2347825315
H                46.6598949691       44.1459220046       80.8662768425
H                43.8307858191       43.9869791091       78.7444032954
N                48.9894016680       37.4209074446       82.4685114011
C                49.2946427755       36.3682055541       83.4259316707
C                48.7395616751       36.7748957482       84.8037601614
O                48.9473573141       37.8882328551       85.2857334556
C                50.7814435303       36.0360394529       83.5295911796
C                50.9631982803       34.9265559465       84.5637218317
C                52.3269827596       34.2599750289       84.5318054831
O                53.0954177432       34.2656976091       85.4836455958
N                52.5632085907       33.5492224156       83.4138736112
H                49.5581196183       38.2550858989       82.5015766074
H                48.7520075910       35.4793931603       83.0864985648
H                51.1654544231       35.7331840769       82.5549451469
H                51.3433027763       36.9140289902       83.8574279289
H                50.8404582944       35.3477224078       85.5642845603
H                50.2137320504       34.1453964108       84.4096682631
H                51.9789072935       33.6413111616       82.5932185106
H                53.4888881189       33.1794474127       83.2637513038
N                47.9323963358       35.8698214587       85.3489778370
C                47.2404182375       36.0566327307       86.5998003170
C                47.8475241272       35.1511218289       87.6673505247
O                48.1892422782       34.0038642495       87.4004398856
C                45.7627788034       35.6794809641       86.3870043217
C                45.0040348128       35.6993995829       87.7052308325
C                45.1318262434       36.6405514536       85.3872805850
H                47.8506101071       34.9433671053       84.9429018937
H                47.3393484488       37.1010982717       86.9037572003
H                45.7475804361       34.6640097739       85.9765346160
H                43.9428902422       35.5356347577       87.5352518189
H                45.3611188911       34.9177082834       88.3723189889
H                45.1395073839       36.6660735586       88.1847222805
H                44.1002964401       36.3545690922       85.1992588581
H                45.1441320412       37.6518893995       85.7894064359
H                45.6810516383       36.6302061760       84.4490695284
N                47.9086736751       35.6809236951       88.8925053421
C                48.2988976743       34.9495804437       90.0747123532
C                47.0970642303       34.9407991135       91.0141344386
O                46.5768598631       36.0005865314       91.3591191132
C                49.4501070811       35.6725756650       90.7780801202
C                49.7960854705       35.0584549039       92.1042568199
C                50.7713037683       34.0709575826       92.1840465031
C                49.1972948145       35.5068605676       93.2800872144
C                51.1900428912       33.5883024126       93.4103473446
C                49.6181197898       35.0289773871       94.5099845482
C                50.6307238537       34.0858571455       94.5769950359
H                47.6119399560       36.6400000706       89.0311987179
H                48.5741437289       33.9328307620       89.7872124526
H                50.3265991927       35.6815134577       90.1252957032
H                49.1117846482       36.7021850710       90.9148912499
H                51.2294642586       33.7107936003       91.2764791384
H                48.3973187345       36.2345089639       93.2452872651
H                51.9797565416       32.8547914879       93.4623815773
H                49.1606102359       35.4080974561       95.4135676864
H                50.9845742292       33.7370208168       95.5350342851
N                45.2462758174       34.3865146007       94.4559917693
C                45.5399620895       34.4085110823       95.8694994597
C                45.0523537034       33.1217145993       96.5244078991
O                44.1529169189       32.4363764622       96.0405680705
C                44.8974508534       35.6199564967       96.5296687012
C                45.5360021421       36.8967415838       96.0671049222
C                46.8035898189       37.2368508975       96.5218220114
C                44.8659924848       37.7694757755       95.2236103957
C                47.3755106326       38.4350169438       96.1402248616
C                45.4394807547       38.9671878959       94.8351765586
C                46.6966382580       39.3026643339       95.2982031766
H                44.4130469816       34.8754328433       94.1337065590
H                46.6285398509       34.4579240999       95.9958100483
H                43.8274516249       35.6213407223       96.3133283489
H                45.0492707212       35.5399172187       97.6061922341
H                47.3172056236       36.5772044517       97.2069431828
H                43.8690671984       37.5224825210       94.8967829888
H                48.3492025484       38.7168482468       96.5145540132
H                44.8894152630       39.6326511069       94.1879962848
H                47.1627589040       40.2397062359       95.0390520181
N                48.9469222292       30.1352857242       88.9210289122
C                48.8799428601       31.1040137742       87.8549933741
C                48.1678550666       30.4862239908       86.6561543828
O                48.1109353307       29.2760315746       86.4834502755
C                50.2473299376       31.6563268762       87.3902174649
O                50.8822167421       30.6879616706       86.5836174522
C                51.0975900551       32.0849831074       88.5787083961
H                49.1513570591       29.1777404375       88.6601092829
H                48.3104460433       31.9610084295       88.2243606163
H                50.0295121423       32.5482019591       86.7790343718
H                51.7984505668       30.9673018277       86.4575713499
H                52.0280367186       32.5323026274       88.2352098328
H                50.5573659827       32.8373052057       89.1451917404
H                51.2982791786       31.2349872117       89.2265257660
N                47.6266676149       31.3841893654       85.8287081295
C                47.0054808834       31.0311077610       84.5671524203
C                47.0438995947       32.2679712925       83.6708881822
O                47.4820508649       33.3385976516       84.0757180839
C                45.5638680044       30.5433986947       84.7549619517
H                47.7468775871       32.3762714262       86.0186277380
H                47.5944811580       30.2198393026       84.1188279878
H                45.1698054836       30.1068217439       83.8413830294
H                45.5470122410       29.7670139161       85.5175017125
H                44.9105087840       31.3544035141       85.0650356083
N                46.5620632548       32.1032704502       82.4392717102
C                46.4329961331       33.1862681798       81.4883591100
C                44.9602531141       33.3313030505       81.1009214819
O                44.3325330544       32.3892593488       80.6466739539
C                47.1925682272       32.8721861912       80.1902973154
C                48.6762643179       32.9706983036       80.3699749094
C                49.2945927321       34.2108611873       80.2754584203
C                49.4434792566       31.8402046289       80.6227818150
C                50.6694797161       34.3119306021       80.3776518017
C                50.8163602597       31.9467095392       80.7533513688
C                51.4362020576       33.1778431596       80.6038622470
H                46.1937174998       31.2075390406       82.1507839125
H                46.8126013132       34.0954061137       81.9601918071
H                46.9018966116       31.8707374946       79.8700158330
H                46.8770989073       33.6101949677       79.4527434055
H                48.7044654599       35.0997750972       80.1105330785
H                48.9744682258       30.8718349938       80.7179681515
H                51.1554249216       35.2698499633       80.2586470158
H                51.4148154830       31.0755345724       80.9679956136
H                52.5144583200       33.2340119187       80.6067511673
N                38.1853447280       38.8092392838       83.6882660112
C                38.7320695906       39.6677573192       84.7103103995
C                37.7250933568       40.7585535545       85.0820012931
O                37.1530913463       41.4297946159       84.2375150881
C                39.9928097041       40.3789721664       84.1999844971
C                41.2856554527       39.5856536790       84.3880824877
C                41.2053831204       38.1921567907       83.7760062216
C                42.4462583819       40.3647619503       83.7737892952
H                37.9629752659       39.2641155299       82.8079872107
H                38.9462526713       39.0528766773       85.5888149927
H                39.8324160027       40.6033641684       83.1434630317
H                40.0882646226       41.3289831582       84.7307589377
H                41.4579442989       39.4814126818       85.4657215117
H                42.1800356705       37.7151391170       83.8445440827
H                40.4869070653       37.5699527992       84.3026041791
H                40.9113259974       38.2406281429       82.7300609614
H                43.3958600920       39.8968235937       84.0195862060
H                42.3460551089       40.3937184893       82.6919641290
H                42.4599244669       41.3893011412       84.1397123583
N                37.7049129427       44.0401278167       87.8426764383
C                38.5500824501       44.7798037824       88.7850480839
C                38.1192202996       44.5127936269       90.2236355294
O                36.9432797039       44.5917597656       90.5758004766
C                38.3677708440       46.2434561076       88.3852318000
C                38.0106885485       46.1580837705       86.9024541345
C                37.1321207924       44.9124875458       86.8323249051
H                39.5906342090       44.4545532230       88.6644807858
H                37.5280026083       46.6642855321       88.9408264109
H                39.2616938100       46.8295600761       88.5810014279
H                37.4873186955       47.0440080752       86.5540437760
H                38.9058735234       46.0099822529       86.3007483911
H                36.0938272181       45.1481095532       87.0937802010
H                37.1754015304       44.4468356475       85.8485102085
N                39.1060224060       44.2394249898       91.0844202390
C                38.7777251720       43.7082076778       92.3974867177
C                37.9095879850       44.6798582439       93.1891936279
O                36.8884379495       44.3300869036       93.7512764467
C                40.0454897215       43.4007336255       93.2033525245
C                39.7906262382       43.3792667286       94.6881136793
C                39.2121936358       42.2838531790       95.3162600304
C                40.1493142812       44.4685283681       95.4679874413
C                38.9881484161       42.2788931402       96.6793255046
C                39.9380842441       44.4752014713       96.8318542168
C                39.3480715693       43.3799978321       97.4523740985
O                39.1082923393       43.3573730856       98.7873961432
H                40.0880012378       44.2170422009       90.7866535796
H                38.1749974891       42.7992248596       92.2708188614
H                40.4489986196       42.4410988130       92.8749075556
H                40.7813428188       44.1759015452       92.9832179877
H                38.9362248392       41.4221459939       94.7277410779
H                40.6107430679       45.3369848738       95.0191552834
H                38.5377632342       41.4272865544       97.1629356692
H                40.2122448203       45.3536350938       97.3996994115
H                39.4298406733       44.1767863385       99.1882019589
N                44.4232980425       40.4519022858      100.8804441924
C                44.3846878212       41.8424622195      100.4601528898
C                43.8298233905       42.7104250457      101.6148711711
O                42.6682571539       43.1008075504      101.5856487587
C                43.5068506817       42.0802051018       99.2055401726
C                43.7491735480       41.0936991382       98.0536883217
C                43.7393699150       43.5131377232       98.7188047196
C                42.8985369402       39.8358411963       98.1243538431
H                43.8217566217       40.1826638075      101.6437154734
H                45.4160521437       42.1534873822      100.2510939906
H                42.4634145597       41.9833539038       99.5272457278
H                43.4988716950       41.6054036414       97.1220304185
H                44.8021730830       40.8196625369       98.0137357069
H                43.0213162653       43.7557131363       97.9399507723
H                43.6137905610       44.2181208257       99.5359045253
H                44.7412112477       43.6189265118       98.3190461698
H                43.1226697840       39.1870217430       97.2794679792
H                43.0837341809       39.2604491482       99.0273281282
H                41.8403556030       40.0914138560       98.1068980798
N                48.8504197331       42.1228634696       99.6441274144
C                48.3894084365       41.8718140678       98.3058936108
C                49.5007658128       41.6127783468       97.3018554177
O                49.2362180792       41.0197310873       96.2569178487
C                47.4534744353       42.9755850337       97.8106176891
C                48.1941883372       44.2929479654       97.7113590149
O                48.7002605651       44.8184155175       98.6952289668
N                48.2581954153       44.8474201905       96.4912981008
H                48.7906604344       43.0739328673       99.9888671440
H                47.8191050054       40.9292312925       98.3368929816
H                47.0221595739       42.6672661750       96.8596311547
H                46.6659358255       43.0888140367       98.5562424463
H                48.7664631888       45.7120415242       96.3828010107
H                47.9086133872       44.3852354268       95.6679439342
N                54.5382801691       48.1533507210       89.7248537388
C                55.0261826860       47.1611759524       88.7809067708
C                54.7088229320       47.6775957284       87.3701373403
O                53.6363301047       48.2144339824       87.1386604397
C                54.3251324579       45.8326709796       89.0382301104
S                54.9042082845       44.5557832202       87.8279054222
H                53.5909259597       48.0241992103       90.0540163353
H                56.1112796889       47.0607217965       88.9000430311
H                54.5506199650       45.4621476124       90.0388314728
H                53.2489464639       45.9515185261       88.8994526883
N                55.6459096276       47.4672720732       86.4419690379
C                55.5002026870       48.0178740308       85.1203811338
C                56.2558580406       49.3266059870       84.8997069565
O                56.6988971461       49.5994805474       83.7930540308
H                56.5675358089       47.1234225034       86.6886728711
H                55.8414184699       47.2980210136       84.3748055420
H                54.4378835142       48.2363485394       84.9697336003
N                56.4693871476       44.3643490935       92.2849686785
C                56.2986521827       45.3104778866       93.3835872937
C                56.7812094692       44.6523947075       94.6839359395
O                56.6555074696       43.4409550225       94.8450606448
C                54.8519692891       45.7937678960       93.5413184955
C                54.6657971115       47.1732463531       92.9201225077
S                53.0167029738       47.8784104547       93.1866111882
C                51.9536366866       46.8000183666       92.1703399270
H                55.8130439748       43.5988386870       92.2258988334
H                56.9594370751       46.1453449132       93.1340316349
H                54.1894950980       45.0669069161       93.0667040466
H                54.5963431240       45.8280988452       94.6033602538
H                55.3383898301       47.9008812712       93.3754385698
H                54.8652698346       47.1473839310       91.8482638621
H                50.9515463298       47.2026520851       92.2563616322
H                52.2881865152       46.8211388248       91.1369504618
H                51.9786504858       45.7881311657       92.5601604212
N                57.4864397627       45.8877745517       77.5936106939
C                57.3722771598       44.7049407661       78.4206837913
C                58.0369126578       43.5005744142       77.7388802015
O                57.5473102499       42.3832754420       77.8016560330
C                55.8738652517       44.5040437237       78.6518455694
C                55.1999575674       45.3607134304       77.5689655821
C                56.3457137078       45.9149860551       76.7011410997
H                57.9386667274       44.8928708191       79.3369137090
H                55.6202746104       43.4493658852       78.5562000902
H                55.5860802617       44.8423526097       79.6444372966
H                54.4931795158       44.7914902393       76.9706906026
H                54.6524389810       46.1886976782       78.0168112113
H                56.5446906608       45.2883813071       75.8256314729
H                56.1215568953       46.9181127663       76.3521279326
N                56.5851531357       30.2982216267       78.4902163029
C                55.5436781591       31.2807561917       78.3108550551
C                55.0552770538       31.6106541675       79.7620164007
O                55.3826112572       30.7897644764       80.6444979485
C                54.3550585298       30.8733279602       77.4338748213
C                53.7050451275       32.1323123797       76.8597997705
C                52.3044503124       31.8965831559       76.3050091839
C                51.2827511841       31.8117899499       77.4305396232
N                49.9015002699       31.7748101865       76.8719110950
O                54.4091427136       32.6581497529       79.8936554834
H                56.6341764606       30.0157017902       79.4717466427
H                56.0031786596       32.1800400269       77.8778283606
H                54.7176082697       30.2275989124       76.6298240792
H                53.6504368243       30.2944681258       78.0318700068
H                53.6662073387       32.8794260783       77.6540845044
H                54.3588402702       32.5079959309       76.0709921181
H                52.0596340576       32.7310166266       75.6469224314
H                52.3064468162       30.9672560218       75.7357779590
H                51.4531384024       30.9045384157       78.0086899922
H                51.3806906755       32.6711561203       78.0937161876
H                49.2166634816       31.7369882252       77.6400863088
H                49.7321339249       32.6122008298       76.2929492910
H                49.8019942939       30.9269069725       76.2938797251
H                57.9380516321       46.5248064782       78.0410892342
H                58.8890751407       43.6216552915       77.2298040540
H                56.4076134700       29.5762324043       77.9830563381
H                43.6205160467       46.7433265117       81.9734297744
H                39.3635549908       39.9848041191       90.5639442173
H                42.0105874449       36.8646148610       92.6492162954
H                52.2667338453       42.0326371264       76.3855818501
H                46.2937228435       38.8606561696       79.4692059765
H                46.7313915011       34.0728114575       91.3501119441
H                45.9272489591       34.7606667957       94.0018048966
H                45.4665569489       32.8073208313       97.3785696109
H                49.5935158097       30.3710084442       89.5009871356
H                44.4964083846       34.2093658964       81.2186232467
H                38.7760546249       38.1582823097       83.4950903513
H                37.5171319581       40.9405786488       86.0430522396
H                38.2151935060       43.4792636487       87.3578619050
H                38.1728390701       45.6419880596       93.2599402458
H                44.1868769771       39.9231690717      100.1915710050
H                44.4189838125       42.9531808655      102.3855589219
H                48.3713206036       41.6292558108      100.2244854964
H                50.4315287196       41.9231599068       97.4951005951
H                55.0596170815       48.1519536861       90.4584788966
H                56.3888613874       49.9616081158       85.6606815988
H                56.4000964545       44.7995129836       91.5002195539
H                57.1986439025       45.2099412286       95.4014945578
