 75 
 
N                27.2203564392       45.0619449281        2.8437162509
C                26.6619622782       46.2229262809        3.5176763386
C                25.3761889123       46.6541376430        2.7975329294
O                25.4090725877       46.9657717112        1.5925452982
C                27.5800777347       47.4617817286        3.4889612266
C                26.9157784180       48.4962735174        4.4320133905
C                27.8056034087       49.6844482367        4.7704082379
C                27.1287561625       50.5370869679        5.8406930324
N                28.0890594137       51.4900343964        6.4726712041
H                27.5581198139       45.1643394338        1.8914028646
H                26.4572315864       45.9101152051        4.5410423401
H                28.5680411073       47.1871695968        3.8576596073
H                27.6662997855       47.8446159388        2.4752377466
H                25.9891639883       48.8592694050        3.9845807991
H                26.6682883645       47.9819525665        5.3599551058
H                28.7569313642       49.3014892577        5.1477556819
H                28.0010608815       50.2723714407        3.8755701608
H                26.3075007646       51.0924189114        5.3861364498
H                26.7269121101       49.8994684319        6.6285512374
H                27.6756481671       51.9583075766        7.3185093062
H                28.9216769914       50.9735236578        6.7882696300
H                28.3874663377       52.1951031496        5.7865485626
N                24.2741284181       46.6557060745        3.5507686242
C                22.9939975700       47.0767825545        2.9430102955
C                22.9942361856       48.5805510346        2.5519034003
O                23.3836512998       49.4546138920        3.3384326937
C                21.8544230175       46.7909634431        3.9164497960
O                20.6413600392       47.3579500319        3.4682095064
H                24.3120990346       46.4138282163        4.5492980218
H                22.8437927155       46.5044849504        2.0234039136
H                21.7385331817       45.7051440539        4.0187352596
H                22.1150290963       47.2193151267        4.8917942998
H                20.0410023634       47.4751887877        4.2349193920
N                22.4062071231       48.8522820356        1.3825183112
C                22.2795817370       50.2086652658        0.9378586231
C                21.4544798327       51.0831067250        1.8696932080
O                21.5826978372       52.3154229932        1.8601473136
C                21.6263847654       50.2762992482       -0.4664344924
H                22.1419235648       48.1012295459        0.7420739421
H                23.2709639606       50.6797561816        0.8804010939
H                21.5210918224       51.3136811474       -0.7709628226
H                22.2468327126       49.7472308269       -1.1815987500
H                20.6444183835       49.8117278839       -0.4277447200
O                24.8938476354       51.8092595110        3.2590183027
H                24.8347932462       52.1537099015        2.3640839340
H                24.2157324425       52.2769761255        3.7634662506
O                26.2424731420       49.3816282071        0.2885028146
H                26.0391173764       49.9557669391        1.0336354177
H                25.9631807292       48.4906892525        0.5455182232
O                24.9616072293       52.9132043710       -0.0664087025
H                25.7009246313       53.3841488755       -0.4603808015
H                24.1659118851       53.2723146687       -0.4716569492
O                24.9270515400       53.6352755774       -4.0105296920
H                25.1411910826       54.3029070843       -4.6827122035
H                25.4939081818       52.8805997930       -4.1898632417
O                24.9576257931       50.6829183882       -1.6176199105
H                24.9194123557       51.4815570198       -1.0667002271
H                25.5318495703       50.0791725866       -1.1224837326
O                22.9269844436       56.4372744102        0.0664087025
H                23.7044930492       56.8420698095        0.4603808015
H                22.8401354120       55.5686268796        0.4716569492
N                18.1324224852       56.2546941691       -1.3825183112
C                19.2437721267       55.4668417528       -0.9378586231
C                19.5885096924       54.3150618135       -1.8696932080
O                20.7198358884       53.8099437285       -1.8601473136
C                18.9757463878       54.8673395906        0.4664344924
H                17.3498501704       56.4013441387       -0.7420739421
H                20.1474399392       56.0898584855       -0.8804010939
H                19.8214989945       54.2574622775        0.7709628226
H                18.8277836682       55.6691974853        1.1815987500
H                18.0824325936       54.2492174404        0.4277447200
H                27.9313316998       44.7596647212        3.3053880557
H                20.7998064343       50.6644398879        2.4990745081
H                18.4157395840       57.0830966171       -1.5910388270
H                18.8985968765       53.9574314378       -2.4990745081
