 548 
 
N                61.6290000000       55.1280000000      212.1260000000
C                60.4350000000       55.1670000000      211.3620000000
C                59.5920000000       53.9570000000      211.6530000000
O                58.3890000000       54.0670000000      211.7950000000
C                60.7850000000       55.2600000000      209.8890000000
C                61.1300000000       56.7130000000      209.5950000000
C                59.6410000000       54.7550000000      209.0190000000
C                61.5780000000       56.9410000000      208.1770000000
H                62.4780000000       55.0540000000      211.5650000000
H                59.8580000000       56.0490000000      211.6400000000
H                61.6400000000       54.6240000000      209.6580000000
H                60.2470000000       57.3280000000      209.7710000000
H                61.9390000000       57.0240000000      210.2560000000
H                59.9290000000       54.8370000000      207.9710000000
H                59.4380000000       53.7130000000      209.2690000000
H                58.7560000000       55.3620000000      209.2090000000
H                61.8060000000       57.9980000000      208.0430000000
H                62.4680000000       56.3410000000      207.9850000000
H                60.7770000000       56.6450000000      207.5000000000
N                57.8480000000       54.6120000000      214.8200000000
C                56.7510000000       55.5530000000      214.6690000000
C                55.5250000000       54.8820000000      214.0800000000
O                54.4160000000       55.1460000000      214.5170000000
C                57.1670000000       56.7150000000      213.8040000000
H                58.6820000000       54.8450000000      214.2810000000
H                56.4950000000       55.9380000000      215.6560000000
H                56.3280000000       57.4040000000      213.7070000000
H                58.0110000000       57.2210000000      214.2720000000
H                57.4560000000       56.3410000000      212.8220000000
N                51.9840000000       55.1430000000      215.7350000000
C                50.9800000000       55.9750000000      215.0600000000
C                50.4440000000       55.3290000000      213.7980000000
O                49.5440000000       55.8480000000      213.1570000000
C                51.5620000000       57.3410000000      214.7410000000
C                52.0740000000       58.0240000000      215.9690000000
C                51.2240000000       58.7270000000      216.7980000000
C                53.3970000000       57.9340000000      216.3270000000
C                51.6900000000       59.3320000000      217.9380000000
C                53.8720000000       58.5310000000      217.4810000000
C                53.0110000000       59.2310000000      218.2890000000
O                53.4840000000       59.8540000000      219.4230000000
H                52.9300000000       55.2520000000      215.3690000000
H                50.1380000000       56.1300000000      215.7350000000
H                52.3910000000       57.2240000000      214.0430000000
H                50.7870000000       57.9670000000      214.2980000000
H                50.1770000000       58.8020000000      216.5460000000
H                54.0800000000       57.3860000000      215.6950000000
H                51.0110000000       59.8920000000      218.5630000000
H                54.9160000000       58.4470000000      217.7450000000
H                54.4430000000       59.6810000000      219.5250000000
N                64.2170000000       63.5240000000      205.6240000000
C                62.8500000000       63.0470000000      205.4320000000
C                61.9210000000       63.3810000000      206.5770000000
O                60.7280000000       63.4710000000      206.3920000000
C                62.8750000000       61.5430000000      205.2210000000
C                61.5470000000       60.8440000000      205.0130000000
C                61.6510000000       59.7480000000      203.9860000000
C                61.0810000000       60.2110000000      206.2970000000
H                64.8730000000       62.7660000000      205.8140000000
H                62.4480000000       63.5420000000      204.5480000000
H                63.4800000000       61.3410000000      204.3370000000
H                63.3350000000       61.0910000000      206.0990000000
H                60.8360000000       61.5960000000      204.6720000000
H                60.6750000000       59.2760000000      203.8710000000
H                61.9690000000       60.1800000000      203.0370000000
H                62.3820000000       59.0130000000      204.3240000000
H                60.1260000000       59.7150000000      206.1220000000
H                61.8230000000       59.4830000000      206.6240000000
H                60.9640000000       60.9870000000      207.0530000000
N                62.4550000000       63.5330000000      207.7690000000
C                61.6550000000       64.0040000000      208.8940000000
C                61.1800000000       65.4610000000      208.7190000000
O                60.1390000000       65.8340000000      209.2460000000
C                62.4660000000       63.9560000000      210.1890000000
C                63.1170000000       62.6420000000      210.5420000000
C                62.4410000000       61.4380000000      210.4010000000
C                64.4090000000       62.6120000000      211.0490000000
C                63.0440000000       60.2280000000      210.7550000000
C                65.0230000000       61.4210000000      211.3950000000
C                64.3390000000       60.2340000000      211.2560000000
O                64.9440000000       59.0610000000      211.6100000000
H                63.4310000000       63.3430000000      207.9980000000
H                60.7930000000       63.3400000000      208.9590000000
H                63.2640000000       64.6950000000      210.1130000000
H                61.7990000000       64.2110000000      211.0130000000
H                61.4340000000       61.4360000000      210.0120000000
H                64.9470000000       63.5400000000      211.1760000000
H                62.5080000000       59.2970000000      210.6400000000
H                66.0350000000       61.4230000000      211.7730000000
H                65.8490000000       59.2380000000      211.9420000000
N                61.9670000000       66.2870000000      208.0280000000
C                61.6470000000       67.6960000000      207.8880000000
C                60.4460000000       67.8090000000      206.9540000000
O                60.4410000000       67.1730000000      205.9110000000
C                62.8470000000       68.5000000000      207.3560000000
O                63.9260000000       68.5450000000      208.2920000000
H                62.8280000000       66.0070000000      207.5580000000
H                61.4020000000       68.1300000000      208.8580000000
H                63.2010000000       68.0310000000      206.4380000000
H                62.5200000000       69.5200000000      207.1520000000
H                64.6700000000       69.0630000000      207.9210000000
N                59.4180000000       68.6060000000      207.3200000000
C                58.2290000000       68.6630000000      206.4670000000
C                58.4410000000       69.3470000000      205.1220000000
O                57.6970000000       69.0540000000      204.1910000000
C                57.2220000000       69.4440000000      207.3130000000
C                57.7950000000       69.4650000000      208.6930000000
C                59.2660000000       69.5240000000      208.4570000000
H                57.8680000000       67.6490000000      206.2960000000
H                57.1160000000       70.4560000000      206.9210000000
H                56.2570000000       68.9370000000      207.3010000000
H                57.4450000000       70.3440000000      209.2350000000
H                57.5170000000       68.5600000000      209.2320000000
H                59.5840000000       70.5330000000      208.1960000000
H                59.8200000000       69.1720000000      209.3270000000
N                59.4540000000       70.2120000000      205.0040000000
C                59.8530000000       70.7550000000      203.6970000000
C                59.8570000000       69.7270000000      202.5630000000
O                59.5100000000       70.0190000000      201.4030000000
H                60.0140000000       70.5540000000      205.7850000000
H                59.1640000000       71.5540000000      203.4220000000
H                60.8590000000       71.1670000000      203.7790000000
N                60.2410000000       68.5080000000      202.9120000000
C                60.4250000000       67.4550000000      201.9420000000
C                59.1600000000       66.6900000000      201.5650000000
O                59.1640000000       65.9620000000      200.5840000000
C                61.4830000000       66.4890000000      202.4730000000
O                61.0870000000       65.9790000000      203.7250000000
H                60.4330000000       68.2210000000      203.8720000000
H                60.7740000000       67.9040000000      201.0120000000
H                61.5990000000       65.6640000000      201.7710000000
H                62.4290000000       67.0200000000      202.5850000000
H                60.9760000000       66.7120000000      204.3660000000
N                58.0660000000       66.8630000000      202.2920000000
C                56.9450000000       65.9220000000      202.1590000000
C                56.1960000000       66.0780000000      200.8580000000
O                55.9680000000       65.0830000000      200.1720000000
C                56.0050000000       66.0370000000      203.3440000000
C                56.6640000000       65.6790000000      204.6530000000
C                57.8780000000       65.0580000000      204.8400000000
C                56.1250000000       65.8830000000      205.9560000000
N                58.1240000000       64.8810000000      206.1780000000
C                57.0660000000       65.3750000000      206.8860000000
C                54.9370000000       66.4490000000      206.4350000000
C                56.8490000000       65.4120000000      208.2550000000
C                54.7170000000       66.4790000000      207.7960000000
C                55.6650000000       65.9590000000      208.6930000000
H                57.9190000000       67.6170000000      202.9630000000
H                57.3680000000       64.9170000000      202.1590000000
H                55.6500000000       67.0650000000      203.4160000000
H                55.1630000000       65.3610000000      203.1950000000
H                58.5430000000       64.7530000000      204.0460000000
H                58.9590000000       64.4520000000      206.5780000000
H                54.2060000000       66.8550000000      205.7510000000
H                57.5800000000       65.0270000000      208.9500000000
H                53.8030000000       66.9080000000      208.1780000000
H                55.4590000000       65.9890000000      209.7530000000
N                55.2700000000       55.2110000000      201.4210000000
C                55.3260000000       56.6150000000      201.8210000000
C                54.0110000000       57.1240000000      202.3770000000
O                54.0010000000       57.9140000000      203.3230000000
C                55.7580000000       57.4760000000      200.6500000000
C                55.6230000000       58.9220000000      200.8650000000
C                54.8880000000       59.7720000000      200.1270000000
C                56.2460000000       59.6990000000      201.8690000000
N                55.0160000000       61.0440000000      200.5910000000
C                55.8440000000       61.0270000000      201.6730000000
C                57.1230000000       59.4060000000      202.9110000000
C                56.2690000000       62.0660000000      202.4830000000
C                57.5510000000       60.4330000000      203.7260000000
C                57.1100000000       61.7510000000      203.5160000000
H                55.4860000000       55.0430000000      200.4380000000
H                56.0680000000       56.6960000000      202.6150000000
H                56.8080000000       57.2730000000      200.4400000000
H                55.1480000000       57.2150000000      199.7850000000
H                54.2800000000       59.4840000000      199.2820000000
H                54.5680000000       61.8710000000      200.1960000000
H                57.4610000000       58.3940000000      203.0770000000
H                55.9500000000       63.0830000000      202.3070000000
H                58.2340000000       60.2220000000      204.5360000000
H                57.4420000000       62.5320000000      204.1840000000
N                53.6830000000       55.8330000000      205.8560000000
C                54.7040000000       56.4990000000      206.6530000000
C                54.3440000000       57.9220000000      206.9480000000
O                54.4210000000       58.3350000000      208.0940000000
C                56.0670000000       56.4850000000      205.9590000000
C                57.0350000000       57.4830000000      206.5940000000
C                56.6470000000       55.0870000000      206.0260000000
H                54.0170000000       55.5370000000      204.9390000000
H                54.7550000000       55.9330000000      207.5830000000
H                55.9320000000       56.7810000000      204.9190000000
H                57.9880000000       57.4370000000      206.0680000000
H                56.6140000000       58.4850000000      206.5140000000
H                57.1760000000       57.2220000000      207.6430000000
H                57.6180000000       55.0820000000      205.5310000000
H                56.7610000000       54.8000000000      207.0710000000
H                55.9690000000       54.3970000000      205.5230000000
N                53.9710000000       58.6720000000      205.9210000000
C                53.6360000000       60.0710000000      206.1240000000
C                52.4640000000       60.2450000000      207.0810000000
O                52.4250000000       61.2280000000      207.8640000000
C                53.3320000000       60.7750000000      204.8040000000
C                52.8910000000       62.2590000000      204.8800000000
C                53.8940000000       63.1560000000      205.5740000000
C                52.6700000000       62.8080000000      203.4880000000
H                53.8920000000       58.3480000000      204.9570000000
H                54.5150000000       60.5460000000      206.5600000000
H                54.2330000000       60.7430000000      204.1920000000
H                52.5270000000       60.2300000000      204.3110000000
H                51.9710000000       62.2720000000      205.4650000000
H                53.5100000000       64.1760000000      205.5840000000
H                54.0390000000       62.8030000000      206.5950000000
H                54.8380000000       63.1200000000      205.0310000000
H                52.3610000000       63.8510000000      203.5630000000
H                53.6010000000       62.7360000000      202.9260000000
H                51.8920000000       62.2240000000      202.9960000000
N                51.5150000000       59.3110000000      207.0190000000
C                50.3800000000       59.3290000000      207.9430000000
C                50.8200000000       59.3650000000      209.3900000000
O                50.2470000000       60.0940000000      210.2170000000
H                51.5010000000       58.5390000000      206.3520000000
H                49.7690000000       60.2100000000      207.7470000000
H                49.7750000000       58.4360000000      207.7890000000
N                51.8570000000       58.5710000000      209.6570000000
C                52.4700000000       58.4460000000      210.9710000000
C                53.1840000000       59.6920000000      211.3760000000
O                53.0750000000       60.1290000000      212.4930000000
C                53.4570000000       57.2950000000      210.9840000000
H                52.3100000000       57.9810000000      208.9590000000
H                51.6720000000       58.2480000000      211.6860000000
H                53.9020000000       57.2210000000      211.9760000000
H                52.9290000000       56.3720000000      210.7430000000
H                54.2330000000       57.4840000000      210.2420000000
N                53.9420000000       60.2560000000      210.4700000000
C                54.6310000000       61.4920000000      210.7680000000
C                53.6460000000       62.6180000000      211.1530000000
O                53.8480000000       63.3460000000      212.1340000000
C                55.4560000000       61.9220000000      209.5650000000
C                56.5060000000       60.9370000000      209.0560000000
C                57.1380000000       61.4590000000      207.7730000000
C                57.5510000000       60.7040000000      210.1200000000
H                54.1020000000       59.8920000000      209.5310000000
H                55.2950000000       61.3160000000      211.6140000000
H                54.7710000000       62.1110000000      208.7390000000
H                55.9820000000       62.8390000000      209.8300000000
H                56.0360000000       59.9800000000      208.8290000000
H                57.8830000000       60.7420000000      207.4270000000
H                56.3610000000       61.5800000000      207.0180000000
H                57.6120000000       62.4190000000      207.9760000000
H                58.2920000000       59.9990000000      209.7420000000
H                58.0300000000       61.6530000000      210.3610000000
H                57.0690000000       60.2950000000      211.0080000000
N                52.5710000000       62.7480000000      210.3930000000
C                51.6240000000       63.8200000000      210.6410000000
C                50.9030000000       63.5990000000      211.9500000000
O                50.7030000000       64.5330000000      212.7320000000
C                50.6250000000       63.8980000000      209.4980000000
C                51.2700000000       64.3390000000      208.1950000000
C                50.3010000000       64.6590000000      207.0620000000
C                50.0530000000       66.1670000000      206.9010000000
N                49.6860000000       66.4640000000      205.4930000000
H                52.3300000000       62.1390000000      209.6110000000
H                52.1590000000       64.7690000000      210.6930000000
H                50.1840000000       62.9130000000      209.3420000000
H                49.8480000000       64.6180000000      209.7530000000
H                51.8530000000       65.2400000000      208.3870000000
H                51.9230000000       63.5390000000      207.8460000000
H                50.7130000000       64.2840000000      206.1250000000
H                49.3430000000       64.1800000000      207.2670000000
H                49.2350000000       66.4780000000      207.5510000000
H                50.9590000000       66.7190000000      207.1520000000
H                49.5170000000       67.4840000000      205.3770000000
H                50.4560000000       66.1750000000      204.8560000000
H                48.8220000000       65.9470000000      205.2340000000
N                50.5070000000       62.3520000000      212.1720000000
C                49.8970000000       61.9340000000      213.4300000000
C                50.7120000000       62.4560000000      214.5980000000
O                50.2310000000       63.1350000000      215.4970000000
C                49.8260000000       60.4110000000      213.4840000000
H                50.5940000000       61.5950000000      211.4940000000
H                48.8830000000       62.3280000000      213.4940000000
H                49.3690000000       60.1100000000      214.4270000000
H                49.2240000000       60.0540000000      212.6480000000
H                50.8360000000       60.0060000000      213.4150000000
N                51.9880000000       62.1470000000      214.5040000000
C                52.9350000000       62.3480000000      215.5520000000
C                53.1640000000       63.8110000000      215.7700000000
O                53.1930000000       64.2420000000      216.9050000000
C                54.2380000000       61.6510000000      215.1900000000
H                52.4090000000       61.7360000000      213.6710000000
H                52.5590000000       61.9160000000      216.4790000000
H                54.9590000000       61.8070000000      215.9930000000
H                54.0470000000       60.5850000000      215.0630000000
H                54.6200000000       62.0730000000      214.2610000000
N                53.3380000000       64.5590000000      214.6830000000
C                53.4430000000       66.0280000000      214.7460000000
C                52.2170000000       66.6800000000      215.4630000000
O                52.4020000000       67.5790000000      216.3180000000
C                53.7000000000       66.6120000000      213.3410000000
C                53.8250000000       68.1310000000      213.2860000000
C                54.7880000000       68.6760000000      212.2100000000
N                54.2830000000       69.3340000000      210.9690000000
C                53.1930000000       69.0310000000      210.2230000000
N                52.3150000000       68.0480000000      210.5190000000
N                52.9670000000       69.7560000000      209.1190000000
H                53.4120000000       64.1870000000      213.7360000000
H                54.3110000000       66.2900000000      215.3510000000
H                54.6310000000       66.1940000000      212.9590000000
H                52.8700000000       66.3290000000      212.6930000000
H                52.8400000000       68.5510000000      213.0820000000
H                54.1870000000       68.4820000000      214.2520000000
H                55.4210000000       69.4170000000      212.6980000000
H                55.3920000000       67.8350000000      211.8710000000
H                54.8360000000       70.1230000000      210.6350000000
H                52.4520000000       67.4760000000      211.3530000000
H                51.5160000000       67.8780000000      209.9090000000
H                53.6060000000       70.5090000000      208.8630000000
H                52.1560000000       69.5550000000      208.5340000000
N                50.9950000000       66.2030000000      215.1620000000
C                49.7810000000       66.8130000000      215.7230000000
C                49.6290000000       66.4300000000      217.1770000000
O                49.4790000000       67.2760000000      218.0710000000
C                48.5030000000       66.3910000000      214.9480000000
C                47.2450000000       67.0480000000      215.4780000000
C                47.2950000000       68.5590000000      215.3540000000
O                48.1250000000       69.0500000000      214.5640000000
O                46.5300000000       69.2650000000      216.0450000000
H                50.8180000000       65.4110000000      214.5450000000
H                49.8810000000       67.8940000000      215.6220000000
H                48.6150000000       66.6740000000      213.9010000000
H                48.3790000000       65.3110000000      215.0310000000
H                46.3870000000       66.6880000000      214.9100000000
H                47.1270000000       66.7970000000      216.5320000000
N                49.6710000000       65.1240000000      217.3780000000
C                49.4660000000       64.5290000000      218.6730000000
C                50.4670000000       64.9160000000      219.7890000000
O                50.0990000000       64.8330000000      220.9450000000
C                49.3900000000       63.0080000000      218.5160000000
C                49.0020000000       62.2370000000      219.7710000000
C                48.9400000000       60.7360000000      219.5150000000
O                48.1090000000       60.2630000000      218.7190000000
O                49.8310000000       59.9710000000      220.1790000000
H                49.8490000000       64.4390000000      216.6440000000
H                48.5160000000       64.9150000000      219.0420000000
H                48.6470000000       62.7790000000      217.7520000000
H                50.3700000000       62.6460000000      218.2030000000
H                49.7430000000       62.4210000000      220.5490000000
H                48.0190000000       62.5670000000      220.1060000000
N                51.6950000000       65.3390000000      219.4890000000
C                52.6780000000       65.6970000000      220.5570000000
C                53.2370000000       67.1140000000      220.4150000000
O                53.0230000000       67.7850000000      219.3950000000
C                53.8870000000       64.7530000000      220.5900000000
C                53.5930000000       63.2560000000      220.6320000000
C                52.9990000000       62.7540000000      221.9330000000
O                53.3480000000       63.2510000000      223.0030000000
N                52.1450000000       61.7500000000      221.8610000000
H                52.0490000000       65.4480000000      218.5390000000
H                52.1070000000       65.6310000000      221.4830000000
H                54.4810000000       64.9350000000      219.6940000000
H                54.4720000000       64.9870000000      221.4790000000
H                52.8840000000       63.0210000000      219.8380000000
H                54.5260000000       62.7160000000      220.4700000000
H                51.9100000000       61.3450000000      220.9550000000
H                51.7200000000       61.3800000000      222.7110000000
N                53.9310000000       67.5520000000      221.4710000000
C                54.7580000000       68.7430000000      221.4120000000
C                56.1380000000       68.2370000000      221.0470000000
O                56.7130000000       67.3900000000      221.7310000000
C                54.8630000000       69.5450000000      222.7350000000
C                55.6230000000       70.8620000000      222.4910000000
C                53.4910000000       69.7940000000      223.3610000000
H                53.9340000000       67.0940000000      222.3820000000
H                54.3210000000       69.4250000000      220.6830000000
H                55.4250000000       68.9530000000      223.4580000000
H                55.6880000000       71.4130000000      223.4290000000
H                56.6230000000       70.6320000000      222.1250000000
H                55.0830000000       71.4520000000      221.7510000000
H                53.6190000000       70.3590000000      224.2840000000
H                52.8790000000       70.3620000000      222.6600000000
H                53.0190000000       68.8350000000      223.5750000000
N                56.6780000000       68.8260000000      219.9960000000
C                57.8560000000       68.3220000000      219.3390000000
C                59.0810000000       68.3580000000      220.2540000000
O                59.7280000000       67.3510000000      220.4570000000
C                58.0680000000       69.1100000000      218.0320000000
O                58.1680000000       68.1730000000      216.9820000000
C                59.3130000000       70.0720000000      218.0340000000
H                56.3110000000       69.6760000000      219.5670000000
H                57.7150000000       67.2730000000      219.0790000000
H                57.2210000000       69.7820000000      217.8940000000
H                58.3050000000       68.6380000000      216.1300000000
H                59.3880000000       70.5870000000      217.0760000000
H                59.2110000000       70.8130000000      218.8270000000
H                60.2260000000       69.5000000000      218.2000000000
N                59.1600000000       66.1770000000      223.4840000000
C                59.3540000000       64.7700000000      223.2200000000
C                60.8520000000       64.5330000000      223.0010000000
O                61.4100000000       63.5800000000      223.5200000000
C                58.5020000000       64.3540000000      222.0320000000
C                58.2990000000       62.8650000000      221.8550000000
C                57.4040000000       62.1900000000      222.8670000000
O                56.4470000000       62.7840000000      223.3410000000
N                57.6880000000       60.9030000000      223.1660000000
H                58.6720000000       66.6750000000      222.7390000000
H                59.0240000000       64.1440000000      224.0490000000
H                57.5150000000       64.8030000000      222.1460000000
H                58.9780000000       64.7250000000      221.1240000000
H                57.8570000000       62.6960000000      220.8730000000
H                59.2730000000       62.3790000000      221.9140000000
H                58.4750000000       60.4360000000      222.7150000000
H                57.1160000000       60.3990000000      223.8430000000
O                51.3690000000       69.3260000000      218.1410000000
H                52.0430000000       69.8270000000      218.1410000000
H                50.6940000000       69.8260000000      218.1410000000
N                54.0950000000       63.7830000000      228.1010000000
C                55.1380000000       62.9930000000      227.4770000000
C                55.1850000000       61.6070000000      228.0950000000
O                55.2840000000       60.5640000000      227.4100000000
C                56.4860000000       63.6790000000      227.6600000000
C                57.6410000000       62.7400000000      227.3050000000
C                56.5250000000       64.9350000000      226.8140000000
H                54.4350000000       64.5720000000      228.6510000000
H                54.9130000000       62.9050000000      226.4140000000
H                56.6130000000       63.9520000000      228.7080000000
H                58.5840000000       63.2670000000      227.4490000000
H                57.6010000000       61.8660000000      227.9560000000
H                57.5420000000       62.4330000000      226.2640000000
H                57.4900000000       65.4230000000      226.9480000000
H                56.3880000000       64.6620000000      225.7680000000
H                55.7240000000       65.6020000000      227.1320000000
N                52.3770000000       59.5090000000      227.1570000000
C                52.6600000000       58.9510000000      225.8410000000
C                53.5560000000       57.7260000000      225.9350000000
O                53.3090000000       56.7000000000      225.2930000000
C                53.2910000000       60.0120000000      224.9240000000
O                54.2880000000       59.4500000000      224.0890000000
H                52.7710000000       60.4390000000      227.2970000000
H                51.7140000000       58.6450000000      225.3950000000
H                52.5110000000       60.4450000000      224.2980000000
H                53.7450000000       60.7860000000      225.5420000000
H                54.6740000000       60.1440000000      223.5150000000
N                64.6090000000       62.8090000000      215.2770000000
C                63.3380000000       62.6630000000      214.6110000000
C                62.3810000000       63.7210000000      215.0880000000
O                61.8170000000       64.4430000000      214.2850000000
C                62.8130000000       61.2580000000      214.8510000000
C                61.3490000000       61.1010000000      214.6870000000
C                60.8030000000       61.0180000000      213.4520000000
C                60.5380000000       60.9580000000      215.7770000000
C                59.4530000000       60.8220000000      213.2790000000
C                59.1800000000       60.7500000000      215.6260000000
C                58.6310000000       60.6930000000      214.3670000000
H                64.8800000000       62.0030000000      215.8400000000
H                63.4480000000       62.7880000000      213.5340000000
H                63.2950000000       60.5840000000      214.1430000000
H                63.0610000000       60.9670000000      215.8720000000
H                61.4400000000       61.1070000000      212.5850000000
H                60.9630000000       61.0080000000      216.7690000000
H                59.0400000000       60.7700000000      212.2830000000
H                58.5510000000       60.6320000000      216.4960000000
H                57.5680000000       60.5490000000      214.2380000000
N                62.2390000000       63.8520000000      216.3970000000
C                61.2740000000       64.8070000000      216.9390000000
C                61.6130000000       66.2150000000      216.5380000000
O                60.7680000000       66.8850000000      216.0210000000
C                61.1120000000       64.6800000000      218.4490000000
C                60.4270000000       63.4490000000      218.7670000000
C                60.9800000000       62.2850000000      219.2140000000
C                59.0470000000       63.2000000000      218.5850000000
N                60.0120000000       61.3160000000      219.3620000000
C                58.8090000000       61.8530000000      218.9720000000
C                57.9700000000       63.9910000000      218.1650000000
C                57.5260000000       61.2810000000      218.9520000000
C                56.7070000000       63.4290000000      218.1350000000
C                56.4920000000       62.0820000000      218.5260000000
H                62.7620000000       63.3270000000      217.0980000000
H                60.3020000000       64.5570000000      216.5150000000
H                62.0930000000       64.6690000000      218.9240000000
H                60.5240000000       65.5170000000      218.8270000000
H                62.0300000000       62.1430000000      219.4230000000
H                60.1620000000       60.3660000000      219.7020000000
H                58.1230000000       65.0190000000      217.8710000000
H                57.3590000000       60.2590000000      219.2570000000
H                55.8690000000       64.0260000000      217.8080000000
H                55.4920000000       61.6760000000      218.4880000000
N                63.2300000000       67.2120000000      213.9520000000
C                63.0270000000       67.2890000000      212.5100000000
C                61.6150000000       67.6710000000      212.1190000000
O                61.4420000000       68.5030000000      211.2290000000
H                63.5220000000       66.2890000000      214.2740000000
H                63.7060000000       68.0330000000      212.0940000000
H                63.2500000000       66.3180000000      212.0670000000
N                60.6250000000       67.0860000000      212.8070000000
C                59.2010000000       67.4190000000      212.6090000000
C                58.7990000000       68.8370000000      212.9780000000
O                57.8070000000       69.3760000000      212.4610000000
C                58.3490000000       66.5340000000      213.4710000000
C                58.3190000000       65.0830000000      213.0700000000
C                57.6570000000       64.2530000000      214.1390000000
C                57.5720000000       64.9150000000      211.7640000000
H                60.7720000000       66.3690000000      213.5180000000
H                59.0330000000       67.2750000000      211.5420000000
H                58.7270000000       66.5830000000      214.4920000000
H                57.3240000000       66.9040000000      213.4350000000
H                59.3430000000       64.7330000000      212.9400000000
H                57.6490000000       63.2100000000      213.8240000000
H                58.2190000000       64.3560000000      215.0670000000
H                56.6360000000       64.6060000000      214.2810000000
H                57.5630000000       63.8590000000      211.4940000000
H                56.5510000000       65.2750000000      211.8900000000
H                58.0770000000       65.4920000000      210.9900000000
N                59.5530000000       69.4070000000      213.9090000000
C                59.2780000000       70.6970000000      214.4700000000
C                59.1580000000       71.8380000000      213.5000000000
O                58.4100000000       72.7690000000      213.7830000000
H                60.3900000000       68.9760000000      214.3030000000
H                58.3380000000       70.6380000000      215.0190000000
H                60.0800000000       70.9460000000      215.1650000000
N                59.8940000000       71.7980000000      212.3850000000
C                59.9820000000       72.9500000000      211.4810000000
C                60.5800000000       74.1900000000      212.1770000000
O                60.8640000000       74.2130000000      213.3870000000
O                60.8190000000       75.2410000000      211.5680000000
H                60.4370000000       70.9890000000      212.0820000000
H                60.6130000000       72.6940000000      210.6300000000
H                58.9850000000       73.2040000000      211.1200000000
H                61.6980915015       55.8809997521      212.6140755451
H                60.0198255385       53.0564811594      211.7306603272
H                58.0965911036       54.5765469298      215.6842601131
H                55.6251889300       54.2236295990      213.3340036237
H                52.0124214163       55.3561375247      216.6089362784
H                50.8280903332       54.4630714588      213.4776215092
H                64.4938837375       63.9494959146      204.8808387641
H                55.8908957677       66.9831965681      200.5621443248
H                55.8632868221       54.7370822365      201.9041280371
H                53.1471233044       56.8189226545      201.9761947256
H                53.3950613965       55.0987016226      206.2894711681
H                59.3542892847       69.2153765608      220.6901403443
H                58.6729012624       66.2775604697      224.2340816034
H                61.3793518260       65.1616019412      222.4293710547
H                53.5532483439       64.1202829177      227.4663777686
H                55.1362941019       61.5004506281      229.0881137734
H                51.4865618328       59.5736615877      227.2707486243
H                54.3632142056       57.7410380191      226.5250670168
H                65.2566180047       62.9331559227      214.6644836926
H                62.5308516227       66.5751626632      216.7048270204
H                63.8688241486       67.7966617914      214.1971005851
