 152 
 
N                 4.6385065155       34.7891385039      -18.5598852049
C                 4.9087469044       35.1302355697      -17.1237523895
C                 6.2321882847       34.4266012949      -16.7338493416
O                 6.7582148375       33.6997767047      -17.5177099917
C                 3.6904107963       34.5708713179      -16.3431467423
C                 2.5894173649       34.6078147161      -17.3812458885
C                 3.3005268273       34.1391052514      -18.6510416528
H                 4.6811811145       35.6223683859      -19.1492516813
H                 5.4151032880       34.1394514529      -18.8328544771
H                 4.9943863733       36.2084193840      -16.9935623759
H                 3.8858903569       33.5394291125      -16.0336277376
H                 3.4768185679       35.1572504888      -15.4655377828
H                 1.7619540632       33.9542275196      -17.1178308068
H                 2.2079411555       35.6200061693      -17.5027708497
H                 3.4308384630       33.0537634253      -18.6172559786
H                 2.7924897228       34.4211157860      -19.5611221607
N                 6.6695765867       34.6857438455      -15.4981028403
C                 7.7171688655       33.9284650775      -14.8729444316
C                 7.2790456445       33.6560513237      -13.4379541370
O                 6.9778747945       34.5870085409      -12.7173226794
C                 9.0187842720       34.7027414480      -14.8662001012
S                10.3717332300       33.6377908017      -14.1461611252
H                 6.1830740276       35.3309456257      -14.8845874517
H                 7.8452064448       32.9722428426      -15.4219918995
H                 9.3209598563       34.9606608216      -15.8882681248
H                 8.9595986183       35.5801920006      -14.2470683875
N                 7.2307732765       32.3748621457      -13.0875772152
C                 6.7608528721       31.9685422125      -11.7851769701
C                 7.1899411218       30.5344187145      -11.4762248758
O                 7.4984899915       29.7327055395      -12.3486207400
C                 5.2452801146       32.1459118873      -11.6851917971
C                 4.4815564948       31.4258757946      -12.7422842335
S                 2.7640958830       32.1015424326      -12.8622438324
C                 2.0373710768       31.4150972834      -11.3639490138
H                 7.4502966289       31.6261617835      -13.7363644325
H                 7.2210009468       32.6374819429      -11.0224022101
H                 4.9373640651       31.8362850730      -10.6779962146
H                 5.0448449838       33.2147914907      -11.7692310658
H                 4.9095385106       31.5715837602      -13.7293982097
H                 4.3993688526       30.3486531550      -12.5555779223
H                 0.9605012572       31.4936386956      -11.4838828996
H                 2.3102769455       30.3619579170      -11.2994840911
H                 2.3910732723       31.9712504819      -10.5176342573
N                 8.1019190364       25.2624109760      -12.4974809344
C                 8.4393921718       26.5659449338      -13.1017609574
C                 7.7454201429       26.7479031154      -14.4596348303
O                 7.5088434200       25.7926524713      -15.1873043450
C                 9.9565476269       26.6730281865      -13.3822640599
C                10.7480764688       26.9585025727      -12.1274705162
S                12.5269872750       27.0583071460      -12.4174513799
C                12.5580504879       28.4760119087      -13.5710385303
H                 7.9789016068       24.5276327791      -13.1539808707
H                 8.1339543726       27.3561705077      -12.4050518702
H                10.2923375239       25.7291719883      -13.8327738395
H                10.1111435814       27.4662484559      -14.0947514900
H                10.4247807609       27.8941163384      -11.6764269406
H                10.6136097898       26.1552305575      -11.3780095756
H                13.5627681146       28.9247824799      -13.4482741958
H                12.4442784063       28.1302542483      -14.5787977196
H                11.8117032593       29.1698911193      -13.2699272927
N                 7.5593856861       28.0211526090      -14.7731551270
C                 7.1092864621       28.5114958080      -16.0553002396
C                 7.7646680694       29.8648898110      -16.2745788380
O                 7.6323128500       30.7511727997      -15.4421266686
C                 5.5785841927       28.6898249381      -16.0773738734
H                 7.6602267029       28.7315711156      -14.0592210185
H                 7.4119697305       27.7839238356      -16.8259272293
H                 5.2558195279       29.0175343537      -17.0601810552
H                 5.1090882561       27.7354937406      -15.8516401594
H                 5.2915501352       29.4189881300      -15.3313213687
N                 8.4375424755       30.0390834586      -17.4136414459
C                 9.1001747390       31.2983375133      -17.7431561617
C                 9.4123996140       31.3247824444      -19.2253606677
O                 9.3887356192       30.2915805091      -19.8982691350
C                10.4186584939       31.4554760741      -16.9510417411
O                11.3905781323       30.5161455748      -17.3093277542
H                 8.6183304631       29.2814287931      -18.0485389565
H                 8.4246409375       32.1237200585      -17.4820174009
H                10.7789310509       32.4791395554      -17.0759309992
H                10.2068837427       31.2927088372      -15.8851289822
H                11.7743194591       30.7854289264      -18.1563787454
N                13.6659815016       33.6835224549      -14.7712041442
C                13.8490129950       34.7368624110      -13.7919166358
C                14.3253361050       34.2297023707      -12.4273141196
O                14.7690930914       35.0197938529      -11.6161426729
C                12.6001765840       35.5819012618      -13.5920252271
S                11.2310958091       34.7435311448      -12.7562186315
H                12.7597789711       33.2511614859      -14.8495195566
H                14.6348866044       35.3942920829      -14.1732732731
H                12.8374834231       36.4103924809      -12.9102431052
H                12.2530766450       35.9924133882      -14.5354207334
N                14.1660572181       32.9300611215      -12.2019458310
C                14.5092644737       32.2475127630      -10.9791583811
C                15.1096428805       30.8902271496      -11.3566473631
O                15.0127541716       30.4686914610      -12.4945926584
C                13.2574488869       32.0536282044      -10.0982401200
C                12.7700087316       33.3920594281       -9.5900837716
C                12.1394481347       31.3178548275      -10.8325356568
H                13.9384478520       32.3065390138      -12.9807792372
H                15.2523571031       32.8338393633      -10.4399139153
H                13.5907385452       31.4526946827       -9.2401177663
H                11.8960736252       33.2703896644       -8.9416429195
H                13.5430295674       33.8950536454       -9.0228791773
H                12.4744094599       34.0406426050      -10.4129487178
H                11.3244573322       31.1244342296      -10.1483274112
H                11.7748572021       31.9077414183      -11.6575047792
H                12.5165012759       30.3596878368      -11.2085122029
N                 5.9981638236       35.0317286279       -8.3686793339
C                 5.6861192236       35.5394960281       -9.6831517320
C                 6.3693739474       36.9191235391       -9.8945893192
O                 6.3350688454       37.7974954760       -9.0207602470
C                 4.1635132496       35.6262774056       -9.8592641900
C                 3.8432744378       36.1979442682      -11.2327658563
C                 3.5378356227       36.4498026067       -8.7689187620
C                 2.3424938328       36.1206803975      -11.5504139120
H                 5.9470785017       35.7040019520       -7.5977414713
H                 6.1049556801       34.8425245782      -10.4186396514
H                 3.7895405908       34.6078173005       -9.8126850998
H                 4.1726858837       37.2427492517      -11.3066930369
H                 4.4069901608       35.6454888916      -12.0029797870
H                 2.4485325606       36.4478043457       -8.8615509328
H                 3.7860837269       36.0468033624       -7.7871690740
H                 3.8800316193       37.4836392221       -8.8216613971
H                 2.1801750849       36.4344204666      -12.6004662470
H                 2.0096380241       35.0983254043      -11.4561953363
H                 1.7791893501       36.7729923915      -10.9248099847
N                 7.0093799248       37.0555124784      -11.0671244298
C                 7.5864272050       38.2988752095      -11.5038929975
C                 6.4397159894       39.1912740753      -11.9689668299
O                 5.7374947480       38.8376393906      -12.8866680729
C                 8.5351051375       38.0010264576      -12.6627073843
C                 9.6664570206       39.0062222106      -12.8563764471
C                10.3730745376       38.7018231934      -14.1881822438
C                 9.1793835313       40.4312983693      -12.8322578963
H                 6.9084967494       36.3131335936      -11.7415174513
H                 8.1363288119       38.7198215737      -10.6473210272
H                 8.9910284887       37.0163660210      -12.4770897954
H                 7.9357109519       37.9558552349      -13.5713252966
H                10.3993877461       38.8708398631      -12.0384283508
H                11.2346332431       39.3630426984      -14.3117785978
H                10.7377734683       37.6813461237      -14.2075066049
H                 9.6970632662       38.8661655674      -15.0133446167
H                 9.9823150636       41.1118852561      -13.1560342087
H                 8.3348690515       40.5734221538      -13.4930940322
H                 8.9090943787       40.7332951625      -11.8266991803
H                 7.2272116361       30.2167850129      -10.5287441423
H                 8.7619678911       25.0096793061      -11.9402895738
H                 9.6421445077       32.1891898414      -19.6725934212
H                13.8381626971       34.0050364764      -15.5939935279
H                15.5848205177       30.3443486380      -10.6665583371
H                 5.4248543380       34.3707007691       -8.1580649858
H                 6.2709797020       40.0660056763      -11.5146842179
