 105 
 
N                29.2851536437       13.1059305944       -1.2640465603
C                30.3586130945       12.6476073100       -0.4018640569
C                30.3882527877       13.5029115239        0.8786141247
O                30.4970681464       13.0194610529        1.9989532656
C                31.7000807413       12.7674525436       -1.1443725562
C                32.8842675322       12.7364670363       -0.2074763169
C                33.4512774077       11.5332894535        0.1979426324
C                33.4288762294       13.9214187759        0.2824729665
C                34.5441965519       11.5157984439        1.0407868508
C                34.5112635898       13.9205441772        1.1438384240
C                35.0972711839       12.7099784246        1.5082124040
O                36.1838224638       12.6242475071        2.3123627039
H                29.5247282364       13.3494019442       -2.2204869320
H                30.1735881417       11.6115481596       -0.0904029733
H                31.7610425804       11.9597811096       -1.8744769322
H                31.6931713023       13.7213261400       -1.6760188858
H                33.0371587165       10.6034061836       -0.1601532879
H                33.0098670860       14.8720356855       -0.0214859421
H                35.0000934014       10.5874118416        1.3421945237
H                34.9021909927       14.8593518640        1.5103972058
H                36.5009704162       13.5078115681        2.6083193377
N                29.6942819255       12.5349290724        4.7962324942
C                30.6243433378       12.6240445346        5.8978743302
C                29.9550010181       13.2033143511        7.1538772872
O                30.1791710668       12.7334209418        8.2639366161
C                31.8298218597       13.4936113132        5.5628532019
C                32.7112982442       12.9143781927        4.4524605581
C                34.1831225653       13.0947679829        4.7777068035
N                34.5775564886       12.0937762940        5.7580787244
C                35.8227311503       11.8795621288        6.1768321736
N                36.7963654929       12.7381496809        5.9130476248
N                36.0788812314       10.7604505469        6.8595237870
H                29.9208932596       13.0054600409        3.9290666637
H                30.9434143168       11.6077134108        6.1696494196
H                31.4715831713       14.4841195934        5.2795573862
H                32.4094701698       13.5955306458        6.4815829764
H                32.4977870172       11.8549132412        4.3056844869
H                32.4875244898       13.4042814160        3.5053343162
H                34.7817029765       12.9539991667        3.8815513113
H                34.3609065684       14.1037983973        5.1584467305
H                33.8796447572       11.3971427515        5.9745029635
H                36.6217670870       13.6161895800        5.4468313756
H                37.7266150166       12.5834302296        6.2635427960
H                35.3443690184       10.1149606252        7.0980421615
H                36.9806670355       10.6189254688        7.2848147972
O                37.0796068858       14.9794673412        3.4652652461
H                37.6793091159       15.4291780474        2.8686128079
H                36.4133823420       15.6417529160        3.7495011693
O                36.0173493625       15.5842526207        6.7993501637
H                35.8118106171       16.0616063831        5.9735315519
H                35.1748314456       15.3799219563        7.2164069988
N                37.5867253699       17.3121869140        8.1075508108
C                38.0945999140       17.1922257666        9.4839430632
C                39.5970872783       17.5460267975        9.4530267838
O                40.2068863043       17.4598824505        8.3919978915
H                36.9331467549       16.5317880236        7.7247090260
H                37.1351701066       18.2162950069        7.9390490370
H                38.4424204510       17.2702434997        7.5093342708
H                37.5620827142       17.8376678165       10.1789891724
H                38.0138880464       16.1591996019        9.8287852915
N                38.5412724279       19.6139376240        5.4572200456
C                37.5035411253       19.3038929654        4.4890368570
C                37.6236502077       20.1966505919        3.2556495967
O                37.6387199864       19.7688445618        2.1087637078
C                36.1198104539       19.4768616846        5.1259880589
C                34.9986207002       19.2418148762        4.1126877898
C                34.9051505375       17.7414049604        3.7055139085
O                35.4018886862       16.9237857038        4.5334288916
O                34.3522189705       17.4578472975        2.6330113658
H                38.2551313495       20.1074082323        6.3000585926
H                37.6338931181       18.2711073440        4.1466198585
H                36.0015877121       18.7364509347        5.9153136587
H                36.0380517223       20.4802382323        5.5461440895
H                34.0345108537       19.5148750807        4.5475559590
H                35.1229878801       19.8299340667        3.2023014634
N                40.7978549841       19.7527918124        1.2640465603
C                40.6580448661       18.5939870158        0.4018640569
C                39.9025098423       18.9959703955       -0.8786141247
O                40.2667825523       18.6600082951       -1.9989532656
C                39.8835220259       17.4921645722        1.1443725562
C                39.3182628669       16.4511359747        0.2074763169
C                40.0767402811       15.3585022270       -0.1979426324
C                38.0197602095       16.5719668777       -0.2824729665
C                39.5454283676       14.4032609790       -1.0407868508
C                37.4793239540       15.6341546274       -1.1438384240
C                38.2347008517       14.5213742879       -1.5082124040
O                37.7656703642       13.5375278182       -2.3123627039
H                40.4672153136       19.6670498039        2.2204869320
H                41.6478108865       18.2361937500        0.0904029733
H                40.5525050860       17.0355343538        1.8744769322
H                39.0608979789       17.9750851200        1.6760188858
H                41.0891021610       15.2521978988        0.1601532879
H                37.4060063883       17.4101478950        0.0214859421
H                40.1214863250       13.5442494247       -1.3421945237
H                36.4708289465       15.7650054089       -1.5103972058
H                36.8419074653       13.7046516651       -2.6083193377
H                28.6589482750       12.4630615707       -1.3317684525
H                30.3170496740       14.4984487684        0.8166810051
H                29.5841857915       11.6721231795        4.5650511096
H                29.3251608548       13.9758812740        7.0736169712
H                40.0588148591       17.8401951622       10.2898497127
H                38.9236583698       18.8507983055        5.7425257973
H                37.6954064236       21.1884534964        3.3613758662
H                41.6676985742       19.9736670578        1.3317684525
H                39.0759508549       19.5554027230       -0.8166810051
