 416 
 
N               -39.2467042928       61.5940064458       20.7749940333
C               -40.6510644316       61.9083278754       20.8953579934
C               -41.3994336081       60.7652708888       20.2503987448
O               -42.2380437366       60.0409113316       20.7761568008
C               -41.0695139232       63.1492517877       20.1387693982
C               -41.1465337369       64.3962341188       21.0197940419
C               -42.4883096074       65.0673921984       20.8087978567
C               -40.9283064668       64.1615544230       22.5038365758
H               -38.5912220006       62.2237973515       20.3334040864
H               -40.9236411600       61.9248046771       21.9517337402
H               -40.3802996269       63.2957536954       19.3075278808
H               -42.0625584293       62.9650368834       19.7224326538
H               -40.3640041634       65.0933324592       20.7010621385
H               -42.5946192510       65.9050716062       21.4894890714
H               -42.5504313344       65.4243128545       19.7894659242
H               -43.2994465977       64.3701819750       20.9845179716
H               -40.9360802737       65.1235430006       23.0135241451
H               -41.7164607047       63.5572098924       22.9358931643
H               -39.9662229139       63.6952635479       22.6959324630
N               -44.8901779534       60.0468961978       21.1487909550
C               -45.0884774957       61.2687682341       21.8782887036
C               -45.2895872114       62.4601717326       20.9616879606
O               -44.6023655810       62.6664982113       19.9742447329
C               -43.9003438537       61.5675448610       22.7865569117
C               -43.6343744504       60.4048725269       23.7351870569
C               -44.2031039174       62.8407979724       23.5560079740
C               -42.2646838931       60.5066683700       24.3723163372
H               -43.9392515158       59.8433839733       20.8614675746
H               -45.9963040491       61.1242291765       22.4758418195
H               -43.0304127122       61.7102076538       22.1479422077
H               -44.4028693950       60.4202921368       24.5133467121
H               -43.7161222266       59.4586185101       23.2011096677
H               -43.4095848725       63.0322863005       24.2705318482
H               -44.2703794453       63.7052973905       22.9000646029
H               -45.1332559484       62.7425066132       24.1066025337
H               -42.1666720503       59.7990155814       25.1888701539
H               -41.4903661986       60.3037679528       23.6372622460
H               -42.0961581222       61.5027036721       24.7768858390
N               -46.2717384119       63.2707154232       21.3875764617
C               -46.7263647330       64.4423426445       20.6804499432
C               -46.0017283216       65.7060173005       21.1528127735
O               -46.1719641966       66.1575629482       22.2845759977
C               -48.2186471154       64.6215610812       20.9285527227
C               -48.8093286364       65.9051461113       20.2578093756
O               -48.0200854162       66.6669658463       19.6578483766
O               -50.0358767547       66.0667607641       20.3951292615
H               -46.7205389179       63.1014123063       22.2737804016
H               -46.5381439012       64.2861860207       19.6171851192
H               -48.7855364258       63.7668134827       20.5584268923
H               -48.4084011012       64.7417159249       21.9990256684
N               -45.1431320816       66.3062187787       20.3283719755
C               -44.5925709739       67.5723530774       20.7572771233
C               -45.6058852011       68.6876425992       21.0771320590
O               -45.4048094402       69.3198002633       22.1079002209
C               -43.6535812064       67.9951549628       19.6297724678
C               -44.1259477830       67.2109117918       18.4005892837
C               -44.9131572812       66.0114153097       18.9279666337
H               -44.0604569582       67.4305521317       21.7054228921
H               -43.7012759517       69.0673278147       19.4445817018
H               -42.6246366278       67.7494173887       19.8819764060
H               -44.7779376843       67.8411869524       17.7964842102
H               -43.2883510718       66.9126197735       17.7741274850
H               -45.8707008232       65.9294770456       18.4051153363
H               -44.3816345571       65.0621802794       18.8276594886
N               -46.5592298941       68.9990889331       20.1688983748
C               -47.2832785375       70.2900982755       20.1425404435
C               -47.4869139121       70.8245444658       21.5674901210
O               -47.1314294826       71.9419442790       21.8969815698
C               -48.6352925631       70.2554771097       19.3747695616
C               -49.2359882061       71.6285616138       18.9345163543
O               -48.7536663264       72.3405792042       18.0645375753
N               -50.3963613316       71.9523758024       19.5291071082
H               -46.9031114831       68.2586471158       19.5659417330
H               -46.6335404169       71.0171521975       19.6311777607
H               -48.4618686379       69.6949721893       18.4536779017
H               -49.3710626793       69.7057029366       19.9625098379
H               -50.8393771497       72.8179266996       19.2595565041
H               -50.8391581540       71.3623790315       20.2101234423
N               -48.1694600344       69.9855239731       22.3783495424
C               -48.3771023194       70.2902055437       23.7811470869
C               -47.1616342202       69.9946608985       24.6910350885
O               -46.8346961981       70.8137698520       25.5505369739
C               -49.6890117298       69.6606046915       24.3289432207
C               -49.7703489006       68.1247430149       24.4027912478
C               -49.9260939944       67.4992054040       25.8613558266
O               -50.2934374103       68.2500345402       26.7862476987
O               -49.6848620777       66.2793676938       25.9515354133
H               -48.3281052264       69.0364214539       22.0732167493
H               -48.4901380264       71.3818151542       23.8293541891
H               -49.8376375781       70.0352258218       25.3465664202
H               -50.5048981186       70.0416843493       23.7124816075
H               -50.6413246876       67.7641372603       23.8475046387
H               -48.9007055484       67.6483740148       23.9436816799
N               -46.5052752752       68.8357196685       24.5609922826
C               -45.6183780675       68.3670093471       25.6124948153
C               -44.6542372920       69.4822578863       26.0204593540
O               -44.3129077611       69.6733127312       27.1892090608
C               -44.9417983700       67.0596472364       25.1814497267
C               -45.6041173913       65.8029232538       25.7994275906
C               -46.5702805460       65.0801002018       24.8634171270
C               -44.5241427871       64.8363335242       26.2779058132
H               -46.7645990336       68.1619653234       23.8559794024
H               -46.2300472778       68.1762840406       26.5100285459
H               -44.9651583947       66.9903456357       24.0942969306
H               -43.8986848704       67.0955949621       25.4993546729
H               -46.1823355993       66.1163488206       26.6768015542
H               -46.8535620277       64.1335786235       25.3143372663
H               -47.4766123670       65.6655791529       24.7173236748
H               -46.1104340901       64.9078581318       23.9016441172
H               -44.9648290092       63.9205079273       26.6573024018
H               -43.8535613381       64.6024142193       25.4597652529
H               -43.9426481510       65.2944700198       27.0735738150
N               -44.2124987546       70.2117860300       25.0135181859
C               -43.4123058845       71.4073937061       25.1644740521
C               -43.6469033691       72.0932063381       26.5362129779
O               -42.7583384461       72.2517462324       27.3610858021
C               -43.6974430348       72.3513975396       23.9794883729
C               -43.8399125621       71.6632895597       22.5966875885
C               -43.7454124460       72.6983833992       21.4690618118
C               -42.8114875494       70.5667632518       22.3241940476
H               -44.6024587475       70.0408378357       24.0967182707
H               -42.3539830427       71.1097369370       25.1508538154
H               -44.6239243494       72.9005715405       24.1601453615
H               -42.8847708798       73.0788608805       23.9338813062
H               -44.8409443738       71.2399362183       22.5338263139
H               -43.9449535978       72.2179010671       20.5140153347
H               -44.4781455806       73.4881778733       21.6098128838
H               -42.7476028249       73.1323858025       21.4267244558
H               -42.9129551953       70.2179245102       21.3011784584
H               -41.8022473753       70.9621290961       22.4327193029
H               -42.9174640438       69.7112168286       22.9811682256
N               -44.8940021519       72.5496529238       26.7123407706
C               -45.2734563758       73.4192901025       27.8031126817
C               -44.8665996416       72.8772048356       29.1605370858
O               -44.6234539306       73.6182268550       30.1055257192
C               -46.7991671865       73.5444650348       27.9440118198
C               -47.4645672613       74.2460719278       26.7668505654
O               -46.8772427134       74.4916138972       25.7316137844
N               -48.7505998255       74.5872019657       26.9795040345
H               -45.6163303267       72.3031176340       26.0487836083
H               -44.8286477414       74.4121055146       27.6530571928
H               -47.2312145679       72.5424474461       28.0079914442
H               -47.0255494428       74.0938822241       28.8592089004
H               -49.2777644908       74.9148012361       26.1844852928
H               -49.2598554436       74.2222818633       27.7668986098
N               -44.9783027772       71.5538968645       29.2627929499
C               -45.0722339959       70.8814218608       30.5328589280
C               -44.0661468831       71.4065234269       31.5546243648
O               -44.3968818401       71.6170962280       32.7135644701
C               -44.8320831488       69.3773312011       30.3303766604
O               -43.6001850059       69.1262198037       29.7298377974
H               -45.0917817257       70.9959177708       28.4231812226
H               -46.0724826465       71.0280045115       30.9650425774
H               -44.8240362433       68.9022321221       31.3123105994
H               -45.6609259390       68.9661219917       29.7415696191
H               -43.6813812942       69.2655064951       28.7716256128
N               -42.8185650585       71.5470308234       31.0977001062
C               -41.6588851041       71.7533021819       31.9480313032
C               -41.2107570069       73.2310770458       32.0412216316
O               -40.2361581266       73.5700302900       32.6977362872
C               -40.5415903357       70.8669238412       31.3983353383
C               -40.9777715376       69.4110183262       31.4378530949
S               -40.0012915250       68.2619717305       30.3870267997
C               -39.1601379898       69.2974765150       29.1617081952
H               -42.6493052383       71.3401509519       30.1202258855
H               -41.9340028758       71.4487800852       32.9673088559
H               -40.3746724933       71.1828634404       30.3646335869
H               -39.6345614313       71.0413981674       31.9723111449
H               -40.9107753119       69.0124867224       32.4474851593
H               -42.0013829072       69.3057955652       31.0872412888
H               -38.4993752721       68.6194475219       28.6292909725
H               -39.8736885607       69.7367105756       28.4700191558
H               -38.5672513894       70.0629942481       29.6519006688
N               -41.9937752388       74.0468844170       31.3140432848
C               -42.1485469597       75.4736242915       31.4536825599
C               -43.1749463288       75.8747817097       32.5468387023
O               -43.2120270448       77.0419809402       32.9123798351
C               -42.6144442234       76.0572226748       30.1184353423
H               -42.7777597074       73.6238614307       30.8258222426
H               -41.1858173534       75.9017770786       31.7524327614
H               -42.7003994657       77.1355434704       30.2019424489
H               -41.9093216503       75.8024415403       29.3327992652
H               -43.5871975668       75.6379449296       29.8717933336
N               -43.9753449551       74.9017965292       33.0307047123
C               -44.9890920329       75.0895523913       34.0616954272
C               -44.8342729734       74.2279596064       35.3547040190
O               -45.1027877142       74.7593381391       36.4313069831
C               -46.3947872984       74.9008357021       33.4762336265
H               -43.9693709172       73.9998699338       32.5765961531
H               -44.8800887346       76.1275220338       34.3972744627
H               -47.1365733885       75.1042973598       34.2427002438
H               -46.5370957194       75.5860654847       32.6441898971
H               -46.5138063258       73.8799293192       33.1191659080
N               -44.4690243579       72.9469696111       35.2709626608
C               -44.1670504665       72.1492845105       36.4479354237
C               -42.7386131101       71.5394673450       36.3640887754
O               -42.0496280699       71.6619123471       37.3967362609
C               -45.1391774919       70.9877559109       36.6334360449
O               -42.3963262372       70.9460807085       35.3293120931
H               -44.2850904832       72.5023749061       34.3792588791
H               -44.1893782530       72.8223844719       37.3114991038
H               -44.8556845793       70.4298707809       37.5219987556
H               -46.1541246015       71.3641106028       36.7435853855
H               -45.0836862525       70.3403667799       35.7613113663
N               -46.5726367808       58.4747990201       31.5549216890
C               -46.4264008157       59.6779168227       30.7926965842
C               -45.6893674747       60.7265060658       31.6253683289
O               -44.5470103582       61.0732398111       31.3317153073
C               -47.8098366243       60.1197974527       30.3421047712
C               -47.8032099569       61.4900647083       29.6613089978
C               -48.7464528967       61.6147536903       28.4553821184
N               -48.2147192266       60.9463877768       27.2616133599
C               -48.3329636412       61.3086369207       25.9778414072
N               -48.7604897826       62.5153175588       25.6105259741
N               -47.9404405413       60.4620271265       25.0164859118
H               -47.5014841335       58.2859416580       31.9081269062
H               -45.7775743443       59.4656647154       29.9314326485
H               -48.1877530712       59.3452865966       29.6704748052
H               -48.4688020737       60.1305467024       31.2103084887
H               -48.0921526842       62.2548466542       30.3814736910
H               -46.7934907538       61.7256897879       29.3235523527
H               -49.7203891176       61.1807099035       28.7021987059
H               -48.8798845399       62.6733915007       28.2351654649
H               -47.8940051402       60.0026046084       27.4364115621
H               -49.0441422049       63.2216682660       26.2719978643
H               -48.8848313329       62.7474067545       24.6394568885
H               -47.6603713898       59.5179510679       25.2313317469
H               -48.0790142441       60.6726542203       24.0408201075
N               -41.8975887107       63.2553374390       31.1537400183
C               -41.6251522034       64.6829140711       31.3062462524
C               -40.3539128456       64.8827280580       32.1331261197
O               -39.3753363563       65.4727987301       31.6850213101
C               -42.7421262456       65.4393105558       32.0372168208
C               -43.8493766873       66.0157968733       31.1601299490
C               -44.3544837778       65.0014641519       30.1443831192
C               -44.9618646753       66.4669954964       32.1006990251
H               -42.8402089490       62.9161738026       31.2775751435
H               -41.4210113455       65.1271830897       30.3234120528
H               -43.1754722099       64.7573353645       32.7692656150
H               -42.2893114551       66.2709580179       32.5818744514
H               -43.4605874631       66.8777827954       30.6099815800
H               -45.1608313514       65.4282983062       29.5528451614
H               -43.5607788432       64.7070800468       29.4644003214
H               -44.7337149792       64.1054763133       30.6322772208
H               -45.8438462727       66.7696366729       31.5406484923
H               -45.2263164760       65.6439958527       32.7586343517
H               -44.6342351403       67.2980832824       32.7216569924
N               -36.9271644031       64.3627261052       30.6326562065
C               -36.6163615348       65.2384817411       29.5287174471
C               -36.2632257484       66.6125549643       30.1163443947
O               -35.1904478971       67.1349909872       29.8193147204
C               -37.8145666221       65.3537003061       28.5565194387
C               -38.1386868231       64.1566696005       27.6596634004
C               -38.2636377575       64.3430476050       26.2774376994
C               -38.4150969739       62.8674814198       28.1369389700
C               -38.6192781333       63.3142870473       25.4117402965
C               -38.7591575101       61.8247313260       27.2758436269
C               -38.8621501676       62.0265713543       25.8938348426
O               -39.1692842942       61.0393543450       24.9903562018
H               -37.8776349908       64.4268616979       30.9889505510
H               -35.7234561134       64.8566489831       29.0197272720
H               -38.6950555326       65.5776194804       29.1646587539
H               -37.6241278912       66.2137550228       27.9104083320
H               -38.0654760693       65.3190708310       25.8579633602
H               -38.3553341426       62.6749225100       29.1931271235
H               -38.6742548763       63.4903324973       24.3503233281
H               -38.9323384657       60.8458433210       27.6901157328
H               -39.4137815931       60.2301920264       25.4552757933
N               -37.1375639942       67.1678375807       30.9609815451
C               -36.7963048026       68.3203549388       31.8104920617
C               -35.2726635022       68.1705510990       32.0233945077
O               -34.4830470142       69.0575499384       31.7352877563
C               -37.6679470369       68.3151373799       33.0974366090
C               -37.7737623531       69.6549806411       33.8477770013
C               -38.9270028735       69.6840722181       34.8637624382
N               -38.5609795239       68.9856133635       36.0878569821
C               -39.1537105043       69.0240099720       37.2849935561
N               -38.5572847031       68.3617342009       38.2965646208
N               -40.2570189006       69.7028715500       37.5619781923
H               -37.9982569830       66.6806411785       31.1922773250
H               -36.9600951317       69.2499604078       31.2525539362
H               -38.6658488415       68.0183462454       32.7695604389
H               -37.2989322818       67.5348815146       33.7606039629
H               -36.8352304857       69.8776761696       34.3553873009
H               -37.9485145292       70.4515113151       33.1232817845
H               -39.1834118252       70.7172383246       35.1097626345
H               -39.8205178935       69.2270465020       34.4231853442
H               -37.8530183097       68.2734836152       35.9749522541
H               -37.9838058074       67.5641186828       38.0523496680
H               -39.0781032603       68.2740934448       39.1557119080
H               -40.7285381963       70.3764870475       36.9583665459
H               -40.5672019648       69.7697024954       38.5190119416
N               -32.9565634957       66.7584126578       28.4270049538
C               -32.7553832936       68.0872217199       27.8904456786
C               -31.7625957238       68.9316937435       28.6888959568
O               -30.7293239153       69.3224595643       28.1363617561
C               -33.9671805540       69.0165024150       27.8393175591
C               -34.9801085106       68.8412921536       26.7065137557
C               -35.6978064151       70.1787066792       26.4688821172
C               -34.3389366649       68.3476994422       25.4216271343
H               -33.7809896718       66.6638551666       29.0191177577
H               -32.2958311671       67.9768620407       26.9010636170
H               -34.4786221355       68.9717903830       28.7999059042
H               -33.5479614652       70.0239520563       27.7451533572
H               -35.7213776897       68.0955797703       27.0206677390
H               -36.4415208509       70.0798948071       25.6822508250
H               -36.1969417043       70.5037717659       27.3800338740
H               -34.9904369507       70.9466954065       26.1835132123
H               -35.0747396675       68.3045694514       24.6216269560
H               -33.5472941467       69.0287489118       25.1209743057
H               -33.9130099164       67.3573012103       25.5428240214
N               -35.5163116128       75.0303612223       27.9191599338
C               -36.7505779640       74.7591773614       27.1806966072
C               -36.8578332290       75.4758700783       25.8153780456
O               -36.6295346599       74.9187634567       24.7549991069
C               -37.8769241383       75.1191561213       28.1840069466
C               -37.1767918422       75.8559567547       29.3332804185
C               -35.8118333755       75.1819110392       29.3404768885
H               -36.7615299590       73.6887588637       26.9254254752
H               -38.6644571355       75.7255735207       27.7463835818
H               -38.3177633458       74.1979924135       28.5685625762
H               -37.0506545656       76.9148329361       29.1113606764
H               -37.6953797914       75.7526990001       30.2838642347
H               -35.0562847281       75.7488050309       29.8673611321
H               -35.8725324656       74.1817851390       29.7948652325
N               -37.3374812075       76.7340535861       25.9075884734
C               -38.3661331343       77.3047652163       25.0413379557
C               -38.0722996632       77.0120834035       23.5572594119
O               -38.6440655060       76.1713942505       22.8769471444
C               -38.5210819183       78.8124100632       25.3372815625
C               -38.8469798714       79.1630061782       26.8037565457
O               -38.7442249894       78.3808927814       27.7346371098
N               -39.2607106400       80.4268850095       26.9716106545
H               -37.4010442092       77.1177950648       26.8473452000
H               -39.3242715677       76.8118668684       25.2760425419
H               -37.5944162940       79.3439902180       25.1163481353
H               -39.3132747881       79.2100233027       24.7006780529
H               -39.4006412511       80.7567046012       27.9151472506
H               -39.2397934569       81.0978561050       26.2220790408
N               -37.7123800235       73.6388922403       22.1228834437
C               -38.9763246890       72.9884557417       21.9498055956
C               -39.4446393705       73.3610882540       20.5377885766
O               -39.7223666281       72.5505039466       19.6671449096
C               -39.9119637562       73.3829772343       23.0842696316
C               -39.2032619899       73.5021984651       24.4460520093
C               -40.2345585184       73.5819199357       25.5699135712
C               -38.2367794850       72.3621405541       24.7368097789
H               -37.5640786468       74.2718144915       22.8929216859
H               -38.8205104842       71.9005092722       21.9422618990
H               -40.3805103471       74.3415155754       22.8605835693
H               -40.6995383536       72.6315718333       23.1546456642
H               -38.6654844964       74.4429869971       24.4494819157
H               -39.7497974299       73.8293001161       26.5098713872
H               -40.9766556483       74.3490896059       25.3601693854
H               -40.7536474196       72.6364283048       25.6979079757
H               -37.9235058555       72.4038690715       25.7760903278
H               -38.7393274400       71.4079781133       24.5828910073
H               -37.3487989173       72.3945277781       24.1172074434
N               -39.5186706519       74.6788775423       20.3353604306
C               -39.9802929560       75.1538215364       19.0546617613
C               -39.1746721972       74.5593153042       17.9034211255
O               -39.7095656188       74.3247312515       16.8265638307
C               -39.9546008674       76.6806818556       18.9967906123
C               -40.6904603859       77.2233517333       17.7658736680
O               -40.3588499042       76.9852000511       16.6174659528
N               -41.7418086846       78.0108384334       18.0580911141
H               -39.2267504596       75.3334543161       21.0487276896
H               -41.0125613394       74.8010335719       18.8989988581
H               -40.4136682550       77.0650622836       19.9076679956
H               -38.9153695317       77.0092730487       18.9496738895
H               -42.2196854332       78.4704203112       17.2978244369
H               -41.9425308968       78.3069873541       18.9980384394
N               -38.2725367794       71.8501695846       17.1557296552
C               -39.0040280685       70.6990399837       16.7252089419
C               -40.5289019282       70.9761087341       16.6843856889
O               -41.3280739629       70.1772024988       17.1395856072
C               -38.6621816410       69.4957389529       17.6009782121
C               -37.6578318196       68.5680309669       16.9424569798
S               -37.4151735291       67.0269215495       17.8765244551
C               -39.1375686739       66.4836952987       18.1181371063
H               -38.3517340965       72.0937105808       18.1353030086
H               -38.7145128410       70.5129712750       15.6807398888
H               -38.2812257311       69.8522555203       18.5594396151
H               -39.6041396389       68.9765634843       17.7820579318
H               -37.9813614849       68.2972385127       15.9363543012
H               -36.6738462879       69.0338429636       16.8930812121
H               -39.0916423073       65.5460242100       18.6593118351
H               -39.6672575508       67.2035991282       18.7344058303
H               -39.6230693382       66.3692340487       17.1557394249
N               -40.8611553200       72.0789294130       15.9848735660
C               -42.2307203918       72.4909332446       15.7233452091
C               -42.3689686347       73.2714116820       14.3989743860
O               -43.4174373424       73.8407598747       14.1254897025
C               -42.8216323693       73.3430725666       16.8521043288
H               -40.1891897731       72.8380023101       15.9816230992
H               -42.8198233525       71.5688987774       15.6305068759
H               -43.8581313736       73.5714544069       16.6246412526
H               -42.7526120165       72.8010092190       17.7922489223
H               -42.2546498203       74.2681576204       16.9261122554
H               -38.8929679593       61.4802824718       21.5947119507
H               -41.2290370665       60.5331855409       19.2927446267
H               -45.1496291802       59.3493596481       21.6548816808
H               -46.3498407365       57.7672900200       31.0452228196
H               -46.1361574265       61.1389117058       32.4192828878
H               -41.6742443500       62.9940446339       30.3219687958
H               -40.3038721644       64.5281388211       33.0668082944
H               -36.8085943294       63.5071034814       30.3799685270
H               -34.9024044343       67.3255027443       32.4091424834
H               -33.0509215794       66.1723660519       27.7505096266
H               -31.9544669965       69.1597202991       29.6434583197
H               -35.0736822530       74.2591302273       28.0580195830
H               -37.3646963240       77.5295984512       23.0761402064
H               -37.0678927881       73.0197044863       22.2289151780
H               -38.2026442786       74.3582568167       18.0248180364
H               -37.3946854841       71.7223741019       17.0039224819
H               -41.6003020621       73.3132719851       13.7606959082
