 475 
 
N                -1.0038570089       80.3136663568       -4.1391667495
C                 0.3066811515       80.6714713631       -3.7114708398
C                 1.3281362876       79.5455037106       -3.8365559894
O                 2.2649481038       79.5997173908       -4.2849477226
C                 0.2580213648       81.1340014217       -2.2803655473
C                 1.6360136003       81.6268924989       -1.9362930084
C                 2.2278582852       82.5279231103       -3.0290438095
C                 1.5287910819       82.3601175990       -0.5280323403
H                -1.8090876583       80.6660220894       -3.6348059369
H                 0.6751540567       81.4757270405       -4.3692921115
H                -0.4430771219       81.9795542427       -2.1799345517
H                -0.0239071873       80.3398967411       -1.6172176700
H                 2.3372814543       80.7709338950       -1.8075602380
H                 3.0575908292       83.1186557541       -2.6206772038
H                 2.5891046598       81.9668667846       -3.8579917310
H                 1.4663586731       83.2342243168       -3.3399727276
H                 2.5341907572       82.7290937212       -0.2234003056
H                 0.8626166504       83.1643860900       -0.6093075107
H                 1.2081579801       81.6355964821        0.1975258284
N                 0.8572737658       78.5605894371       -2.9442579198
C                 1.6517293797       77.4046762927       -2.8576085758
C                 2.1761204095       76.9930036937       -4.2644797224
O                 3.1980781038       76.8471605662       -4.5613547162
C                 0.9043074103       76.4159150567       -1.9434750840
C                 1.4178521247       74.9754026376       -1.9610541480
C                 2.9697903824       74.7265867168       -2.3710676792
O                 3.2325915001       74.3698178058       -3.5410832253
O                 3.7767399123       74.8850120613       -1.4404556605
H                -0.0558566137       78.5344872916       -2.6827922454
H                 2.6181716348       77.6260510506       -2.3179341457
H                 0.9660205698       76.7741706212       -0.9379834117
H                -0.1439807319       76.4037858316       -2.2708766371
H                 1.2448941478       74.4723707981       -1.0179179706
H                 0.8486357127       74.4000941437       -2.7525471184
N                 1.2785717825       76.8407667212       -5.1987261057
C                 1.8956837875       76.2136490313       -6.3059215283
C                 2.9549215854       77.1041557871       -6.9131667657
O                 3.9429417958       76.7089012390       -7.4835243088
C                 0.8808823843       75.7437600262       -7.3708652765
C                -0.1792125648       74.8706505104       -6.7223404392
C                 0.3069872854       76.8927308901       -8.1409281383
H                 0.2498778746       76.7253492267       -5.0427940492
H                 2.4076080319       75.2946668881       -5.9542371134
H                 1.4526841433       75.0924133828       -8.0952655684
H                -0.7150674489       74.2992894772       -7.4946798986
H                 0.2675823090       74.1545012850       -6.0406552124
H                -0.8973442732       75.4636978314       -6.1883612897
H                -0.5104869365       76.5648301092       -8.7879493674
H                -0.0751381874       77.6358616470       -7.4463379552
H                 1.0602285159       77.3640297352       -8.7684346340
N                 2.6707406400       78.3817714232       -6.9216190566
C                 3.6392928142       79.2949102234       -7.5108458539
C                 5.0693525714       79.1545470898       -6.8929069429
O                 6.0387381055       79.2580179655       -7.5735141988
C                 3.1067920050       80.6802545505       -7.2731900594
C                 4.1682009626       81.7352688521       -7.6709897837
C                 1.7905350577       80.7762685142       -8.0309371253
H                 1.9226612616       78.7488371979       -6.3501095453
H                 3.7281446937       79.0872436249       -8.5865213644
H                 2.9012745848       80.7895268817       -6.2051198841
H                 3.7205027425       82.7464225029       -7.6260475418
H                 4.9960080602       81.7079063112       -6.9782605325
H                 4.5224507486       81.5598971148       -8.6737350981
H                 1.3974122333       81.8113999712       -7.9832601655
H                 1.9652382102       80.5525530204       -9.0870133296
H                 1.0535435003       80.1223943240       -7.6417649917
N                 5.1029382017       79.1283221838       -5.5773542445
C                 6.1456047603       78.6148027669       -4.7906233112
C                 6.6123371909       77.3081910483       -5.4708946698
O                 7.5438112572       77.4277396694       -6.0744317554
C                 5.6910433805       78.3937461582       -3.3802337894
C                 6.7888945529       77.7497629692       -2.5911073053
C                 5.0704934380       79.6503795146       -2.7771867583
H                 4.1330408238       78.9953691771       -5.1256198244
H                 6.9790373254       79.3189131793       -4.8120829027
H                 4.8547424257       77.6336549153       -3.4026708227
H                 6.5428823335       77.6519561793       -1.5220776595
H                 7.0252996796       76.7725082750       -2.9639647274
H                 7.6958983894       78.3628185048       -2.6305263206
H                 4.7946213855       79.4711807020       -1.7275324439
H                 5.8060741817       80.4494457861       -2.7703469225
H                 4.1945708434       79.9759741324       -3.3167208551
N                 6.0646713546       76.2666699397       -5.4239775806
C                 6.5461120876       75.2018564445       -6.2021630627
C                 7.1508063161       75.5630710812       -7.5660048398
O                 8.1054849110       74.9150695722       -8.0813061988
C                 5.5591028569       74.0961201343       -6.6454208842
C                 5.9281407655       72.8592485013       -5.8820632202
O                 6.2099091018       73.0037006098       -4.6642956976
N                 6.0891140810       71.7255576533       -6.6362877252
H                 5.0444082697       76.0523118768       -4.9453490039
H                 7.3678233692       74.7010160995       -5.6767270706
H                 4.5389575482       74.4285560580       -6.3897374546
H                 5.6087135351       73.9252381646       -7.7204230819
H                 6.2644912666       70.8775723003       -6.0852569428
H                 5.7785050941       71.6620317258       -7.5400594731
N                 6.4042624810       76.4154123989       -8.3547880145
C                 6.9553171333       76.6966166135       -9.6557131242
C                 8.4156784163       77.1194547590       -9.6205143547
O                 9.2399974774       76.7758188488      -10.3973923689
C                 5.9825792627       77.7301719783      -10.1986738242
C                 4.6483719384       77.0749841536      -10.4416450351
C                 4.1314176194       77.5779947931      -11.8442557854
O                 3.2842033677       78.5142028101      -11.7473329464
O                 4.6218145453       77.0484306821      -12.9688335568
H                 5.5914235686       76.7753276206       -8.0404138598
H                 6.9449457530       75.8094868306      -10.2962007306
H                 5.9150569548       78.5763124168       -9.5304382137
H                 6.4007286462       78.1015494210      -11.1647144743
H                 4.7522658521       75.9815669665      -10.5201120610
H                 3.9040204828       77.3007040383       -9.7021031341
N                 8.7287941348       77.9752943101       -8.5703795652
C                10.0804650491       78.3486240191       -8.3341883348
C                10.9126600813       77.1911943119       -7.7889942424
O                11.9756972664       76.8962159477       -8.2325550134
C                10.1477682498       79.5521782214       -7.3752876774
C                 9.3994231943       80.8019896621       -7.8704874715
C                10.0007771118       81.6334086924       -9.0087106441
N                11.4045236703       82.0879360886       -8.8116557199
C                11.8552944476       83.2016474879       -8.2290850074
N                11.0529485585       83.9599536597       -7.5019204734
N                13.1711729432       83.6147874984       -8.4128499897
H                 8.0193608452       78.1914932950       -7.9091633027
H                10.5319952553       78.6098651697       -9.3104946832
H                 9.6950109751       79.2356992188       -6.4442245809
H                11.2053831923       79.7764725217       -7.2161678376
H                 8.4006744767       80.5134599576       -8.1788767736
H                 9.2928565031       81.4536367169       -6.9812562102
H                10.0174571354       81.0422226357       -9.9150335063
H                 9.3925286234       82.5172915796       -9.1634383308
H                12.1011291416       81.4745858181       -9.2445237072
H                10.0522909597       83.7077663563       -7.4702100641
H                11.2779762377       84.8536542286       -7.1204273245
H                13.7987930621       82.9996388406       -8.7606869205
H                13.4413147353       84.4164367382       -7.8359678614
N                10.4008601003       76.5730294896       -6.7647527200
C                11.0439075730       75.4222328745       -6.1845922711
C                11.5482590340       74.5513061156       -7.3569045186
O                12.5989493917       73.9536811288       -7.3523700161
C                10.0638199473       74.5499295187       -5.3249955153
C                 9.3392179550       75.2446405814       -4.1259382418
C                 8.3038651952       74.4151114127       -3.3163556832
N                 8.7326866886       74.3524944140       -1.9431061564
C                 9.4327301172       73.3297816117       -1.3364826010
N                 9.3111153757       72.0349717556       -1.6525634070
N                10.2157088031       73.6436753008       -0.2657890282
H                 9.4339361466       76.7696041904       -6.4626274595
H                11.8988618171       75.7143605548       -5.5851594698
H                 9.3209312966       74.1318503899       -6.0134622506
H                10.6571356348       73.6940639198       -4.9550231923
H                10.1401083527       75.5733031342       -3.4485296957
H                 8.8793840113       76.1395320451       -4.5128078232
H                 7.3418909139       74.8411059725       -3.3437429235
H                 8.2517621089       73.3969019387       -3.7285403042
H                 8.9507303494       75.2550315365       -1.5152367478
H                 8.7456075759       71.7670071947       -2.4222074685
H                 9.9450473264       71.3547289567       -1.2400141447
H                10.3995302613       74.6173170835       -0.0802434633
H                10.8669072867       72.9484271753        0.0934726162
N                10.6836069125       74.4439211439       -8.3610106087
C                10.9878442430       73.6681258218       -9.5044390298
C                12.1546011026       74.3062668365      -10.2911655124
O                13.2782750111       73.8521438950      -10.2616067805
C                 9.7304520417       73.4734840192      -10.3178497143
C                10.1158509345       72.6805511671      -11.5467764534
C                10.9560926811       71.3879722891      -11.0978801668
O                12.1529393927       71.5557183165      -10.8208569148
O                10.3295581353       70.2672977774      -11.0822257677
H                 9.7658843778       74.8764585404       -8.3067535927
H                11.3970565097       72.6995479737       -9.1517345477
H                 9.0101432583       72.9332192937       -9.7120302224
H                 9.3316094443       74.4385708950      -10.5945681872
H                 9.2420023210       72.3556939050      -12.1095256150
H                10.7826008660       73.2465499945      -12.1898226432
N                11.9230932181       75.4205250121      -10.9898409057
C                12.9900069105       76.0324485006      -11.7335995983
C                14.2987367543       75.9044719296      -11.0034496841
O                15.2783796668       75.4527858144      -11.5734212825
C                12.7157116047       77.5244698491      -11.8722507890
C                11.5042466857       77.7888781495      -12.7683554777
C                10.8268303502       79.1632327763      -12.4117977982
O                 9.5897725913       79.1706879775      -12.3522362701
O                11.6113663131       80.1267685335      -12.2045160786
H                11.0254120252       75.8718205810      -10.9682194228
H                13.0831868767       75.5567422011      -12.7231244393
H                12.5245592853       77.9508276317      -10.9002203331
H                13.5902091272       78.0289008321      -12.2924396716
H                11.7976634693       77.8316616323      -13.8331936979
H                10.7374675720       77.0237857345      -12.6746422607
N                14.3198720130       76.4663092169       -9.7993355624
C                15.4717111380       76.4971296474       -8.9418184114
C                16.1197554591       75.1253149200       -8.8496211562
O                17.2669957742       74.9470626895       -9.2088788204
C                15.0691904475       76.9757473494       -7.5571781669
C                15.7989005715       78.2063312849       -6.9919525983
C                15.2352724941       79.6100167564       -7.4060599225
O                15.5101213502       80.5693136046       -6.6148277259
O                14.5850385984       79.6730589695       -8.4813478829
H                13.4488623512       76.7664979979       -9.4069878126
H                16.2276626349       77.1640264678       -9.3760698967
H                14.0131604181       77.2106895666       -7.5570293448
H                15.2199476455       76.1533781522       -6.8293610383
H                15.8021889218       78.1765278845       -5.8915072157
H                16.8607062909       78.1889800974       -7.2965463651
N                15.4502730648       74.1462325355       -8.2811444012
C                16.0061096396       72.7892664540       -8.1706907812
C                16.3957285619       72.1559521164       -9.5186061937
O                17.2931064138       71.3056403339       -9.5515042618
C                15.0459087338       71.8211456012       -7.4217533175
O                13.8592565703       71.4149194628       -8.1132495763
H                14.4342405126       74.2200008065       -8.1226996435
H                16.9193405775       72.8493151163       -7.5814110487
H                15.5759813207       70.9003202558       -7.2150980517
H                14.7594807333       72.3128984778       -6.4709300090
H                13.3828008792       72.2177242068       -8.3844050062
N                15.7126225283       72.6095467180      -10.5708321439
C                15.8131906731       72.1072737494      -11.9279487132
C                17.2142615539       72.3887442241      -12.4941215438
O                17.8747528242       71.5574862001      -13.1158216222
C                14.7555720500       72.7955000111      -12.8049718590
H                14.8785837102       73.1662634307      -10.3996135724
H                15.6609060462       71.0224880724      -11.9266733127
H                14.8372565517       72.4178440801      -13.8175036213
H                13.7722017174       72.5395167767      -12.4049816126
H                14.8979631507       73.8606270010      -12.7840502030
N                 2.2754187838       84.4168156585      -10.2632893014
C                 3.4923596431       84.1053432341      -10.9433797651
C                 4.2607886749       85.3420469620      -11.2183507129
O                 5.4802488863       85.3103542711      -11.2013060099
C                 3.1646625523       83.4804348740      -12.2922104943
C                 3.1825748468       81.9527721617      -12.2834618491
C                 2.4343889001       81.5883315582      -13.5614583751
N                 1.9548339292       80.2275230827      -13.6264783510
C                 1.3977842075       79.7115154112      -14.7521903527
N                 1.1390532584       80.3913146035      -15.8518089294
N                 1.0931792815       78.3799016146      -14.7306276575
H                 1.4071979934       84.0065096451      -10.5773926471
H                 4.1122949679       83.4208878714      -10.3497882159
H                 2.1612726315       83.8282086915      -12.5580257781
H                 3.8320227468       83.8607840738      -13.0613687537
H                 4.1986124655       81.5647335211      -12.3102161633
H                 2.6943433682       81.5476173201      -11.4203201389
H                 1.5762292564       82.2279681387      -13.7063849626
H                 3.1317656693       81.7651697361      -14.4154370802
H                 2.4061725300       79.5480014138      -12.9622063771
H                 1.7450613107       81.1993351158      -16.0670518676
H                 0.7736963407       79.9037603781      -16.6307810042
H                 1.1749451336       77.9059795794      -13.8355293831
H                 0.3771626783       78.0331854686      -15.3231840950
N                 5.4882766811       87.4560085591       -8.1866413973
C                 6.3426694066       86.3679544854       -7.6674461860
C                 7.7111151469       86.3206910569       -8.3241299186
O                 8.6907565503       86.0138029589       -7.6640056281
C                 5.7104092746       84.9888859067       -7.8549036825
H                 4.6893750898       87.0891308556       -8.7035958118
H                 6.5119595006       86.5752132097       -6.5924560787
H                 6.3282823537       84.2560881686       -7.3534823416
H                 4.7151813937       84.9852034868       -7.4010305093
H                 5.6370724971       84.7682699400       -8.9019387987
N                 7.7080868225       86.5365690011       -9.6426735739
C                 8.9155704063       86.7444092678      -10.4083896979
C                 9.9914166081       87.5439318439       -9.6508059667
O                11.2547067866       87.4557968241       -9.8841422694
C                 8.6202028853       87.7408708684      -11.5698929630
C                 7.7115910836       87.1450942916      -12.6314855150
C                 8.4811443668       86.1453072057      -13.5129597318
N                 7.5859678653       85.0410246194      -13.8424467356
C                 7.4717054362       84.4949635266      -15.0662024736
N                 8.2817734437       84.8100486223      -16.1180383003
N                 6.4648000633       83.5966760056      -15.2075820963
H                 6.8550673469       86.8773900346      -10.0669542803
H                 9.3258198419       85.8056127898      -10.7598213503
H                 8.1451161608       88.6196258205      -11.1525895524
H                 9.5710136166       88.0449951341      -12.0160182819
H                 6.9121390787       86.6124791408      -12.1322313885
H                 7.2896266595       87.9461162978      -13.2316443079
H                 8.8386289809       86.6624947023      -14.4147592843
H                 9.3413080494       85.7535325226      -12.9804094098
H                 6.9751148614       84.7656901673      -13.1336363850
H                 9.0336278956       85.4882090693      -15.9948332455
H                 8.1276213753       84.4256253855      -17.0143247952
H                 5.9525465947       83.2913230226      -14.4220071004
H                 6.3879471463       83.0976308758      -16.0796243184
N                10.3316762118       88.0636561762       -6.1681116510
C                11.0741099987       87.7274082228       -4.9823015342
C                11.8032767739       86.3653249446       -4.9989192471
O                11.8945490586       85.5605335214       -5.8807675326
C                10.2986490743       88.1487937307       -3.7328647638
O                11.1602580696       88.1934507609       -2.6325227716
H                 9.3452039162       88.1404300644       -6.1561545126
H                11.9632814281       88.4281407999       -5.0027038158
H                 9.8854770930       89.1466860750       -3.9014023368
H                 9.4867794567       87.4536132301       -3.5538898427
H                10.9544131329       87.5243086021       -1.9609785537
N                12.6069097711       86.2406091743       -3.9499539221
C                13.5211553931       85.1613003747       -4.0561887743
C                12.8120921020       84.0234237397       -3.5014769714
O                12.2790865943       84.1620980457       -2.3848429181
C                14.7591567051       85.5114514654       -3.2036509369
O                14.2403279354       85.7339450361       -1.8942923983
C                15.4538623898       86.7334069292       -3.8180454571
H                12.6083621931       86.8821872268       -3.1518789711
H                13.8285916321       85.0255810054       -5.0962769842
H                15.4641739861       84.6707204735       -3.1729380405
H                14.8294745314       86.3880586538       -1.4601274542
H                16.3126666457       87.0163642517       -3.2097535299
H                15.7762535757       86.5168739527       -4.8137879018
H                14.7608383678       87.5823451099       -3.8322886591
N                12.7220645443       82.8957855476       -4.1147994865
C                12.1602327129       81.8206970195       -3.3464668116
C                12.4860305888       81.9966411682       -1.8611024356
O                11.6142991385       81.9687811187       -0.9596551286
C                12.5661649940       80.4731198435       -3.8745876835
C                11.9989463732       79.2638148843       -3.1197347513
C                11.6976016809       78.1481471996       -4.1164652860
C                12.9307895817       78.7440698980       -1.9884941936
H                13.2512036484       82.6534752584       -4.9602195015
H                11.0510592084       81.8778737592       -3.4175997538
H                12.2776722982       80.3990996713       -4.9237828687
H                13.6823568081       80.4012796812       -3.8743395796
H                11.0687159310       79.5659416993       -2.6402380992
H                11.4039486492       77.2569637832       -3.5732215956
H                10.9254261117       78.4354579765       -4.7954989260
H                12.6128350494       77.9166135146       -4.6860490478
H                12.4415485283       77.9298535393       -1.4760015026
H                13.8685156523       78.3792156004       -2.4206990442
H                13.1512602477       79.5185812237       -1.2709494885
N                 9.9704812742       83.9682005636       -0.5695014896
C                 8.6694435607       83.6264437696       -1.0212186558
C                 8.1658208252       82.4854751017       -0.1316131620
O                 7.3111202294       82.5132552159        0.4966980996
C                 8.7423396968       83.3839748475       -2.4818521605
C                 9.0911994025       84.6756071067       -3.2384794078
C                 9.1487469649       84.4248933453       -4.7518931041
C                 8.0987922909       85.7710460296       -2.9123637845
H                10.7504738223       83.9497428778       -1.2218035045
H                 7.9821307621       84.4834713409       -0.7805485545
H                 9.4686915888       82.6082245798       -2.6675321790
H                 7.7602583560       83.0436329230       -2.8456609058
H                10.0869739847       85.0165937252       -2.9002097652
H                 9.3303015827       85.3413097636       -5.2994654331
H                 9.9895916002       83.7463918793       -4.9629761710
H                 8.2354961614       83.9758855432       -5.0796227287
H                 7.9071489907       86.4224281637       -3.7590078272
H                 7.1170533755       85.3250632524       -2.6735000518
H                 8.3906859415       86.3664842725       -2.0538334536
N                 8.9863191740       81.4191108383       -0.2480418588
C                 8.8728939390       80.3422908301        0.6400511259
C                 8.3730476634       80.6513345778        1.9670170083
O                 7.6408112819       79.8856043911        2.7079786893
C                10.2765105294       79.7938255683        0.8852456903
C                10.2488119171       78.3708173874        1.4033057918
C                 9.4451887263       77.5184589428        0.3706464387
O                10.0807250117       76.6910136219       -0.3142345050
O                 8.1996360059       77.7058213279        0.2889016410
H                 9.8992230739       81.5758841507       -0.6709735559
H                 8.2508850946       79.5416470203        0.1942117506
H                10.8321030338       79.7779593361       -0.0744562773
H                10.8457030703       80.4356760362        1.5621257269
H                11.2615538591       77.9514157403        1.5009508259
H                 9.7544307878       78.3281517401        2.3751143571
N                 4.6021111155       82.3070991263        2.3329555372
C                 3.8923849539       81.0782868344        2.4292794980
C                 4.0240191374       80.4087716394        3.7657859355
O                 3.0972497467       80.2490657698        4.3937740169
C                 4.3665266602       80.1779538864        1.3418655733
C                 3.8855409766       78.7921593595        1.5236237212
C                 2.3062610996       78.6981955668        1.3413739653
C                 4.7223506046       77.7398975795        0.6415930278
H                 5.5787341356       82.1896150867        1.9300016170
H                 2.8246881273       81.3398038167        2.2916377979
H                 4.0638473884       80.5491337127        0.3319263994
H                 5.4729225605       80.1546668072        1.3306297669
H                 4.0623463259       78.4571117638        2.5503308547
H                 1.9940592042       77.6881698457        1.5601176358
H                 1.8590422832       79.3832114381        2.0031979684
H                 2.0637091069       78.9321301219        0.2918140419
H                 4.3992774173       76.7354669694        0.9242699884
H                 4.4926260055       77.8768710850       -0.4071016735
H                 5.7524976299       77.8684571602        0.8442261895
N                 8.5935800795       72.4371318334        5.5806271141
C                 8.5180727524       71.3596646001        4.5794424212
C                 9.0048501992       70.0829133714        5.2157614313
O                 8.4732614808       68.9559122956        5.0611801588
C                 9.4039823504       71.6801515794        3.3968324561
C                 8.7456585127       72.6884220086        2.4735676112
C                 7.6121208088       72.0628696603        1.6452840207
N                 6.8482640337       73.1331959080        0.9733248015
C                 6.3356795887       73.0651207743       -0.2858146478
N                 6.1775070948       71.8938060627       -0.8924894493
N                 6.1611156709       74.2066212499       -0.9932299535
H                 8.7112996089       73.3913426185        5.2600272185
H                 7.4844508709       71.2284615201        4.2623901349
H                10.3718893009       72.0788541870        3.7455380529
H                 9.6133053953       70.7600263523        2.8406431110
H                 8.3233111331       73.5045662038        3.0635079228
H                 9.4764634316       73.1438536427        1.7952112292
H                 8.0215462991       71.3929669118        0.8870546856
H                 6.9267946058       71.5277613828        2.2877100936
H                 6.9657985352       74.0538360297        1.3454008607
H                 6.0676250181       71.0501328714       -0.3227026185
H                 5.6423613067       71.8952240162       -1.7463694784
H                 6.3078395135       75.0770405285       -0.5171538720
H                 5.3953546965       74.2463243369       -1.6465363953
N                 0.0134534795       70.1229652150       -9.1827662700
C                 0.9723696289       70.0124438740       -8.1669876062
C                 0.5920186401       68.9888846374       -7.1858716785
O                 1.4475877374       68.3284674361       -6.5558400816
C                 1.2001564395       71.3063192633       -7.4100646308
C                 2.1114418626       71.9434795533       -8.4257011689
O                 1.7432612779       71.9141215177       -9.6017643429
N                 3.3942935694       72.3378794381       -7.9322234459
H                -0.4735941575       71.0009687062       -9.3680145379
H                 1.9449308529       69.7071230381       -8.6020175241
H                 0.2705918899       71.8560989909       -7.3116666547
H                 1.6796820903       71.1663943505       -6.4394790904
H                 3.9791672208       72.8084790937       -8.5141555840
H                 3.4989680465       72.2865899161       -6.9105922752
N                 2.5689502721       66.6116115947       -8.3496164541
C                 3.9879912494       66.9630804381       -8.4490211755
C                 4.7171192526       66.8187085926       -7.0742257791
O                 5.8114975622       66.2649150172       -6.9908427217
C                 4.3034805825       68.3663032528       -8.9900682617
C                 3.8946721152       68.7294200961      -10.4775842958
C                 4.8919847540       68.4158035671      -11.6176864274
N                 6.3143352853       68.9260522778      -11.5568741316
C                 7.0921518820       69.2726490940      -12.6301930414
N                 6.5482447048       69.7277888831      -13.7735939177
N                 8.4187686841       69.1949022965      -12.5495399197
H                 1.9191757691       67.1807124071       -8.8750890199
H                 4.4647538455       66.2188421204       -9.1168547281
H                 3.8080927747       69.0818549039       -8.3304503759
H                 5.3739722462       68.5180997537       -8.8783592971
H                 2.9867994982       68.2296565154      -10.7332338275
H                 3.7067332707       69.8095838170      -10.4903181289
H                 4.9878481194       67.3233220774      -11.6852264591
H                 4.4433385543       68.7747522206      -12.5312434090
H                 6.8269579743       68.6169172835      -10.7651603554
H                 5.5348560009       69.5705684103      -13.9881593834
H                 7.1214011180       69.8885237111      -14.5457040468
H                 8.9360567439       69.3706308791      -11.6804272283
H                 8.9084496805       69.5805823779      -13.3332455633
N                 4.1335959156       67.3944071813       -6.0211440693
C                 4.6644220880       67.0751993967       -4.7323198915
C                 4.7271218803       65.5605138781       -4.4235561307
O                 5.8109153708       65.0187278688       -4.4355080705
C                 3.9402636553       67.8804940599       -3.6753339617
C                 4.5986779036       69.2636460491       -3.5466077718
C                 3.5327409087       70.3895168381       -3.3807780095
O                 3.0965454468       70.5973807853       -2.2132266977
O                 3.2059838529       70.9594908078       -4.4359970450
H                 3.2199674967       67.7833546768       -6.0751263345
H                 5.7435638168       67.3539755162       -4.7262101150
H                 2.8938398005       67.9860267217       -3.9424128683
H                 3.9754137371       67.3763743828       -2.6970882868
H                 5.2801938527       69.3023859830       -2.6877717462
H                 5.1481320361       69.5033324163       -4.4515336966
H                -1.1319523963       80.5966803765       -4.9838528666
H                17.6347479602       73.2867515907      -12.3646072524
H                 2.3391813445       84.1633199740       -9.4020841727
H                 3.7796557150       86.1960324497      -11.4163907637
H                 5.1806438049       87.9500270344       -7.5001228182
H                 9.7244938405       88.1797745591       -8.9266124306
H                10.5960361115       88.8693567992       -6.4697079864
H                13.4317417693       82.1421020696       -1.5704626429
H                 9.9672379198       84.8111449856       -0.2541696292
H                 8.5903125332       81.5305968525        2.3909200969
H                 4.1512150118       82.8733308665        1.7980963782
H                 4.9220589204       80.1109060828        4.0895152333
H                 7.8349854695       72.4511229537        6.0647122989
H                 9.8079692599       70.0957071077        5.8114426334
H                 0.3924069676       69.9299358340       -9.9759458915
H                -0.3739807996       68.8034631580       -7.0056941066
H                 2.4466530333       65.7697749941       -8.6434778556
H                 3.8875418942       65.0562386362       -4.2215365096
