 51 
 
N                21.4050000000       50.4910000000        5.3240000000
C                21.8570000000       50.3540000000        6.7040000000
C                21.6330000000       51.6270000000        7.5130000000
O                21.2210000000       51.5770000000        8.7040000000
C                23.3660000000       50.0030000000        6.6880000000
C                23.8470000000       49.7170000000        8.1090000000
C                23.6020000000       48.4950000000        8.7300000000
C                24.5120000000       50.7200000000        8.8090000000
C                24.0690000000       48.2680000000       10.0140000000
C                24.9950000000       50.4680000000       10.0820000000
C                24.7750000000       49.2450000000       10.6780000000
H                22.0610000000       50.3110000000        4.5700000000
H                21.2770000000       49.5670000000        7.2060000000
H                23.4890000000       49.1390000000        6.0350000000
H                23.8950000000       50.8530000000        6.2600000000
H                23.0360000000       47.7360000000        8.2130000000
H                24.6330000000       51.6900000000        8.3520000000
H                23.8550000000       47.3210000000       10.4840000000
H                25.5010000000       51.2520000000       10.6240000000
H                25.1250000000       49.0800000000       11.6850000000
N                19.4680000000       51.8940000000       10.9810000000
C                20.0860000000       52.1830000000       12.3250000000
C                20.5660000000       53.6600000000       12.5320000000
O                21.1560000000       54.1480000000       11.5460000000
C                21.3680000000       51.3380000000       12.4050000000
C                21.0110000000       49.8990000000       12.5410000000
C                20.4370000000       49.4470000000       13.7220000000
C                21.1380000000       49.0250000000       11.4570000000
C                20.0590000000       48.1010000000       13.8270000000
C                20.7500000000       47.6940000000       11.5550000000
C                20.2080000000       47.2380000000       12.7450000000
O                19.7830000000       45.9500000000       12.9110000000
O                20.4170000000       54.2560000000       13.6270000000
H                20.0230000000       52.0910000000       10.1620000000
H                19.3560000000       51.9250000000       13.0920000000
H                21.9520000000       51.5270000000       11.5020000000
H                21.9360000000       51.6870000000       13.2720000000
H                20.2720000000       50.1350000000       14.5370000000
H                21.5320000000       49.4110000000       10.5290000000
H                19.5680000000       47.7460000000       14.7170000000
H                20.8370000000       47.0360000000       10.7030000000
H                19.7270000000       45.4930000000       12.0270000000
O                24.0490000000       54.1670000000       11.1300000000
H                24.2550000000       54.1520000000       10.1780000000
H                23.0830000000       54.1320000000       11.2110000000
O                25.5310000000       52.6050000000       12.9700000000
H                26.3500000000       53.1070000000       13.0170000000
H                24.9580000000       53.1090000000       12.3710000000
H                20.7258362707       49.9202888260        5.1722588237
H                21.8131735928       52.5198822602        7.1003273139
H                19.2645542248       51.0190370890       10.9257757214
