 476 
 
N                31.3050558278       66.6541034163      -13.9541159060
C                32.0920432134       66.1903241540      -15.0818311607
C                33.5311051215       66.6753141663      -14.8852806005
O                34.4599484494       65.8743109622      -14.8621869177
C                31.5005450794       66.6183325606      -16.4240043143
C                30.7023000630       65.4895819145      -17.0867828216
C                29.5206089241       65.0583308027      -16.2302648103
C                28.9192596896       63.7191281450      -16.6502891230
N                27.9009515237       63.7940094919      -17.7343541229
H                30.4402042573       67.1502715707      -14.1319874372
H                32.1453851871       65.0917034595      -15.0438429237
H                30.8727540210       67.4967238759      -16.2727803643
H                32.3135998776       66.8988024279      -17.0953875330
H                30.3702007197       65.8102675995      -18.0731871897
H                31.3712770189       64.6368343673      -17.2067900869
H                29.8745929710       64.9377221266      -15.2082652013
H                28.7485273689       65.8310155250      -16.2182381636
H                29.7169856022       63.0446361203      -16.9588655974
H                28.4307348413       63.2850347204      -15.7768045041
H                27.1845230980       63.0738054655      -17.5978726225
H                27.4167286329       64.6975210621      -17.7429809064
H                28.2518332251       63.5545764526      -18.7291731935
N                33.7171712937       67.9910807451      -14.7327995370
C                35.0586657940       68.5141731596      -14.4580278443
C                35.8710443574       67.5636403605      -13.5746031674
O                36.9539331541       67.1282598930      -13.9474515702
C                35.1062077717       69.8651502154      -13.7262185475
C                35.0036681690       71.1121917252      -14.6091355306
C                33.9045432370       70.9975865448      -15.6688290815
C                34.7666421414       72.3092508479      -13.6806433072
H                32.9202625679       68.6134337490      -14.7396428710
H                35.6140790966       68.5798571501      -15.4033788972
H                34.3080088188       69.8715592495      -12.9773031108
H                36.0547805665       69.9138006281      -13.1926299966
H                35.9510342690       71.2383739434      -15.1374619679
H                33.8430554340       71.9253663780      -16.2325209958
H                34.1184132998       70.1940946070      -16.3672196054
H                32.9306125997       70.8113311555      -15.2185992400
H                34.6086164107       73.2165623290      -14.2578699144
H                33.8881958443       72.1289499197      -13.0686124825
H                35.6139357841       72.4547405290      -13.0175947575
N                35.4518640740       67.3672115288      -12.3178304676
C                36.2380707655       66.4934818773      -11.4690466871
C                36.6538262579       65.2012144350      -12.2218805486
O                37.8147623067       64.8068379996      -12.1748680219
C                35.4929002108       66.2040096901      -10.1584217762
C                36.0473378073       66.9980905074       -8.9654569606
C                37.3745991122       66.3879489140       -8.4942694594
O                38.4167411247       66.4811115436       -9.1255136552
N                37.3227972268       65.7985185846       -7.2825694654
H                34.5147530312       67.6062349734      -12.0276268818
H                37.1964501570       66.9799867994      -11.2441718324
H                34.4353716418       66.4239820487      -10.3066721986
H                35.5798352453       65.1376057207       -9.9317406663
H                36.2073487379       68.0353646787       -9.2577104549
H                35.3216061977       66.9712907485       -8.1540480732
H                36.4309812488       65.6031295592       -6.8580222666
H                38.1034305572       65.2283954986       -6.9952106953
N                35.6734783144       64.5325593178      -12.8545908375
C                35.8389049952       63.2256287629      -13.4686248533
C                36.8380259066       63.1422494541      -14.6161523397
O                37.4147979011       62.0977977148      -14.9141124112
C                34.5760225491       62.8098294049      -14.2009130076
C                33.3595692336       62.6213272761      -13.3165739292
C                32.3878965892       62.0840360640      -14.3356636484
O                31.7403085328       62.8222185222      -15.0572577927
N                32.4137091493       60.7471456037      -14.4448051908
H                34.7589359204       64.9631178246      -12.9230677908
H                36.1263248282       62.4944423623      -12.7011118935
H                34.3515587159       63.5808850372      -14.9400413276
H                34.7995969424       61.8765859551      -14.7236523129
H                33.5593836483       61.9207220141      -12.5079437698
H                33.0308726928       63.5763176184      -12.9094993628
H                32.9727930040       60.1989495528      -13.8139203366
H                31.8577825534       60.2686999851      -15.1353030033
N                36.8365138703       64.2244936055      -15.3746221575
C                37.7322481255       64.3444163187      -16.4880041779
C                39.1099733700       64.6394828264      -15.9013945969
O                40.0537656290       63.9173202736      -16.2092821979
C                37.2291137751       65.3928164316      -17.4655342085
C                36.0854825289       64.9535880951      -18.3834173371
C                36.0366459745       65.5492421489      -19.6499369973
C                35.0198075963       64.0946205851      -18.0899423395
C                34.9965736317       65.3652917399      -20.5511358698
C                33.9456263413       63.9198212183      -18.9796133526
C                33.8905715239       64.5813192231      -20.2205631987
O                32.8719008552       64.5702027532      -21.1376462579
H                36.2624348897       65.0236273808      -15.1156712999
H                37.8156187930       63.3682578106      -16.9837683779
H                36.9003885420       66.2676934942      -16.8973170888
H                38.0653239699       65.7020506600      -18.0943906828
H                36.8465556501       66.1993799704      -19.9474150018
H                34.9910589521       63.5723359559      -17.1466137193
H                35.0126305280       65.8674148756      -21.5029539322
H                33.1302682465       63.2799976115      -18.6733287172
H                32.1000521631       64.0779818121      -20.8271110687
N                39.2050026895       65.6405440184      -15.0258645372
C                40.4318147996       65.9143220236      -14.2702053529
C                41.0974058986       64.5507976662      -14.0527381855
O                42.2755648481       64.3512606660      -14.3205240519
C                40.1290153467       66.6999962700      -12.9712757647
C                41.2903558923       67.5690952635      -12.4716741783
C                40.8859803356       68.5973755169      -11.3943308219
N                40.9500245627       68.0075285728      -10.0668303786
C                41.2492539778       68.5975217092       -8.9049591044
N                41.4088328727       67.7998804606       -7.8296460137
N                41.4833797215       69.8978856289       -8.7742513310
H                38.3828958010       66.1714840512      -14.7506399048
H                41.1177719902       66.4948174739      -14.8984892122
H                39.2721365280       67.3369300972      -13.1969075973
H                39.8169679823       66.0028444035      -12.1936237542
H                42.0832106368       66.9321110965      -12.0777100869
H                41.7131436287       68.1033831063      -13.3210814302
H                41.5667277485       69.4500835296      -11.4210972410
H                39.8679300672       68.9534135116      -11.5803371409
H                40.5439450907       67.0812554710      -10.0064405561
H                41.1255736126       66.8347354463       -7.8929606939
H                41.4508872045       68.2119563523       -6.9125655453
H                41.1503008605       70.6483116222       -9.4051154252
H                41.6954973962       70.2442295187       -7.8515651605
N                40.2346742432       63.6314653057      -13.5917831710
C                40.5791382977       62.2638560354      -13.3205936518
C                40.7624647830       61.3784715365      -14.5747099715
O                41.8891752500       60.8854555977      -14.6900946526
C                39.6584955358       61.7458223538      -12.2189571430
C                39.8355671613       62.6289404791      -10.9808754453
C                39.1854140677       62.1047590467       -9.6589662783
O                39.2282348569       62.9016207677       -8.6987777271
O                38.6857434471       60.9619111647       -9.6521317707
H                39.3185814404       63.9425594018      -13.2894456270
H                41.6044012071       62.2661802435      -12.9124703461
H                38.6213969745       61.7590990494      -12.5572116897
H                39.9158668809       60.7150362027      -11.9693299902
H                40.9022957193       62.7471611099      -10.7672950119
H                39.4174632744       63.6209843048      -11.1449233854
N                39.8321546189       61.1240545519      -15.5068829097
C                40.2403363564       60.1737670618      -16.5536308221
C                41.4284284180       60.7207138382      -17.3921457854
O                42.2462425935       59.9091424460      -17.8196201726
C                39.0893036001       59.5731220461      -17.3999826388
C                39.5431150599       58.4348808724      -18.3829122254
S                38.7565579721       56.6931973321      -18.3516388011
C                39.1547416268       56.0096803169      -19.9918757022
H                38.8761237220       61.4627196131      -15.4173586837
H                40.7034474273       59.3253150274      -16.0246107721
H                38.3372848062       59.1979226795      -16.7040968309
H                38.6413663521       60.3702142724      -17.9942183688
H                39.3400126881       58.7587705906      -19.4005765942
H                40.6103269311       58.2518151731      -18.2788066207
H                39.1303922425       54.9327586002      -19.8860497657
H                38.4175923029       56.3481079369      -20.7133787125
H                40.1580222979       56.3398495397      -20.2428825536
N                41.5698187675       62.0358087786      -17.5904706055
C                42.8218062799       62.5769015280      -18.0910991627
C                44.0598345592       62.1774987069      -17.3119440704
O                44.9849789367       61.6015727703      -17.8716937558
C                42.9744856507       64.0940604774      -18.0008289602
C                42.3481673724       64.9253282675      -19.1103948173
C                43.1152823653       66.2468837442      -19.2261188397
C                42.3608206570       64.1937146087      -20.4387673640
H                40.9454442687       62.6819468797      -17.1136483163
H                42.9737695591       62.1875396263      -19.1019494609
H                42.5915653893       64.4188711201      -17.0322552627
H                44.0509027985       64.2899371539      -18.0121515642
H                41.3067621687       65.1372290165      -18.8391462282
H                42.6376307871       66.8813194665      -19.9670623629
H                43.1265952770       66.7627046644      -18.2688093055
H                44.1426403672       66.0698128258      -19.5324736949
H                41.8799735563       64.7946718162      -21.2062185776
H                43.3871136221       64.0077741730      -20.7429619810
H                41.8591161563       63.2436735500      -20.3763396280
N                44.1451278838       62.6636645060      -16.0709252002
C                45.3781449262       62.5139141495      -15.3510792234
C                45.6061993836       61.0460728061      -14.9248582935
O                46.6954662686       60.6933990013      -14.4931906353
C                45.4620272761       63.5752129639      -14.2447321378
C                46.9079264580       64.0044149926      -13.9948425505
C                44.7824616358       63.0523506296      -12.9845896141
C                47.0181490059       65.2419606837      -13.1105644520
H                43.3584814254       63.0734781075      -15.5863391465
H                46.1876828322       62.6885402424      -16.0763415144
H                44.8993309006       64.4412819412      -14.6080907467
H                47.4411921194       63.1669531410      -13.5386872791
H                47.3828345594       64.1972606611      -14.9590353854
H                44.6957180100       63.8303267089      -12.2329473744
H                43.7821699981       62.6995737037      -13.2239485343
H                45.3484892431       62.2184116646      -12.5728556617
H                48.0610308351       65.5267190842      -13.0011264138
H                46.4750778341       66.0735276707      -13.5513817735
H                46.6116448774       65.0442102013      -12.1229369000
N                44.5968815648       60.1769981543      -15.1640689913
C                44.6402343035       58.7270083998      -14.9993014163
C                45.1305755411       57.9526345498      -16.2512384558
O                46.0548918679       57.1490186771      -16.1566464810
C                43.2543507163       58.1934728749      -14.6394949082
H                43.6804139938       60.5529268577      -15.3664301299
H                45.3664665736       58.5020740776      -14.2079246089
H                43.3122607143       57.1324044783      -14.4147745608
H                42.8578588490       58.7272816475      -13.7800550438
H                42.5792861999       58.3366624705      -15.4787771187
N                44.4669459749       58.1874584913      -17.3945869552
C                44.9367409465       57.7099680353      -18.6877290524
C                46.4002180723       58.1642169908      -18.9159323017
O                47.1517273011       57.5740236591      -19.6782748914
C                44.0397311080       58.1519140931      -19.8578118944
C                42.7005037170       57.3556560918      -20.1177864554
O                42.3256965527       56.4826290692      -19.3246139047
O                42.0887768553       57.6963374536      -21.1674568613
H                43.7133721612       58.8660701810      -17.4162544256
H                44.9761054116       56.6117082412      -18.6625251464
H                43.7521934624       59.1956344728      -19.7120686930
H                44.6129415582       58.0691600698      -20.7820313503
N                46.7687980508       59.2609096675      -18.2351646550
C                48.1248987445       59.6825116805      -17.9536311587
C                48.1964166453       61.2083462250      -18.1333816828
O                48.4919933288       61.9875953800      -17.2456585181
H                46.0678108692       59.7327177027      -17.6781087407
H                48.3928549126       59.4317313152      -16.9217542443
H                48.7949901530       59.1773402440      -18.6531351575
N                47.9756142437       61.5276398402      -19.4137051939
C                47.7203952579       62.8391860419      -19.9566296738
C                47.5069471027       63.9732822012      -18.9225637255
O                46.7217027181       63.9466642785      -17.9890416458
C                46.4741060088       62.6900135776      -20.8357081281
C                46.7060942113       61.6919266652      -21.9862766573
C                46.0613577974       64.0728229778      -21.3171147522
C                45.7351572469       60.5182968920      -21.9285467773
H                47.5642677238       60.7854705624      -19.9640332136
H                48.5849184775       63.1198519575      -20.5728762995
H                45.6890059887       62.3039867295      -20.1740286504
H                46.5620234263       62.2099554882      -22.9334729774
H                47.7284162712       61.3142139190      -21.9656992173
H                45.2336256124       64.0050984977      -22.0187996600
H                45.7304241777       64.6759959182      -20.4742396324
H                46.8864777413       64.5881268835      -21.7791028932
H                45.8935195653       59.8360904663      -22.7593053891
H                45.8406081897       59.9591756697      -21.0010293633
H                44.7071416594       60.8731411855      -21.9767703161
N                48.2604503116       65.0550846222      -19.2306539152
C                48.2174527268       66.3596837248      -18.5981087294
C                47.1665913040       67.2954099486      -19.2174937996
O                46.6441443331       67.0848701432      -20.3061019998
C                49.5971211423       67.0277492083      -18.7616551269
C                49.6969299479       68.5769125177      -18.4495469874
O                50.1074084249       68.9075698988      -17.3207367023
O                49.4085477005       69.3519165460      -19.3799104632
H                48.7803038642       65.0342703960      -20.0932492519
H                47.9813619227       66.2051498944      -17.5413833209
H                50.3180511023       66.5169801553      -18.1202536012
H                49.9091271925       66.9274610256      -19.8049373981
N                46.9113256916       68.3893968558      -18.4807578769
C                46.2814839400       69.5443975307      -19.1063059333
C                47.1015989982       70.0944408606      -20.3110922925
O                47.0911736822       69.5100006821      -21.3885032793
C                45.9894714995       70.4888451318      -17.9214744354
C                47.0446877135       70.1245186976      -16.8790714806
C                47.1386647743       68.6096737853      -17.0482852743
H                45.3555882418       69.1999876933      -19.5817791385
H                45.9821808902       71.5420819666      -18.1914675028
H                45.0043655531       70.2338776317      -17.5244613120
H                48.0146903239       70.5576470381      -17.1248216266
H                46.7711500370       70.4098878647      -15.8677901583
H                48.1055200065       68.2445018339      -16.7136712552
H                46.3516090849       68.0921016694      -16.4848866398
N                47.7560415253       69.0299746967      -24.1128806709
C                46.8253908093       68.0227315830      -24.5752187171
C                45.5007685374       68.6818297551      -24.8626852750
O                44.7344038346       68.3708471288      -25.7733101277
C                46.7466086395       66.8886140775      -23.5651255680
C                48.0180126429       66.0179611141      -23.6829087179
C                48.8278073833       66.0499918367      -22.3852698067
C                47.6837833397       64.5995133852      -24.1692830333
H                48.0151560145       69.0226849696      -23.1341862694
H                47.1908224342       67.6366360816      -25.5378280431
H                46.6277658337       67.2998266336      -22.5639482664
H                45.8566379594       66.2980252737      -23.7873034609
H                48.6531332993       66.4703969371      -24.4519239053
H                49.3590782633       65.1140218229      -22.2271739009
H                49.5611021665       66.8567323219      -22.4172048318
H                48.1784680441       66.2531396699      -21.5430800552
H                48.3937885258       63.8738500539      -23.7920280634
H                46.6916772837       64.2950946803      -23.8580287466
H                47.6962753587       64.5757096422      -25.2559668225
N                45.1917392945       69.6510516215      -24.0313748031
C                43.9387015860       70.2998658922      -24.2475863626
C                43.9867350671       70.9971741939      -25.6219383882
O                43.1366049456       70.8098431922      -26.4805242880
C                43.6759101395       71.1526486509      -23.0240011588
C                44.0752013817       70.4282698327      -21.7191914194
C                43.4042929625       71.1557994437      -20.5513397816
C                43.7235019246       68.9445758158      -21.6922410123
H                45.8301946601       69.9990802375      -23.3342061020
H                43.1640862957       69.5274404912      -24.3466888687
H                44.2467385478       72.0805995124      -23.0908849036
H                42.6148982985       71.4078123945      -22.9926273029
H                45.1471158756       70.5460908746      -21.5869999362
H                43.7269767355       70.7612590205      -19.5944023431
H                43.6526647493       72.2157370675      -20.5772510615
H                42.3231000006       71.0577579564      -20.6095610597
H                43.8360234040       68.5648321422      -20.6812485159
H                42.6826346705       68.8080075060      -21.9830232542
H                44.3531133569       68.3436401853      -22.3327945818
N                48.2389235787       57.1213601122      -27.9965616487
C                48.0139359174       58.4630921673      -27.5239761066
C                46.9109397034       59.0652779937      -28.3650671199
O                45.8722705751       59.5022952621      -27.8784571002
C                49.2623531846       59.3219467979      -27.5705203045
C                49.2020515559       60.2731102288      -26.3930763823
C                50.5689680477       60.8635038591      -26.0841558081
N                50.6891212164       61.2017157269      -24.6721483725
C                50.7538778582       62.4092589347      -24.1180309738
N                50.5960255258       63.5201755609      -24.8271565293
N                50.9299254026       62.5106414226      -22.7939940620
H                49.1902723855       56.8141913897      -28.1258740170
H                47.6249234192       58.4070391030      -26.4969974971
H                50.1368817927       58.6734712591      -27.4674846318
H                49.3410045542       59.8543970370      -28.5182841028
H                48.4560233409       61.0481720372      -26.5588997626
H                48.8927729746       59.7024069118      -25.5138021476
H                51.3322063937       60.1057925758      -26.2848508678
H                50.7926476691       61.7286584419      -26.7034261814
H                50.7758148471       60.4027989660      -24.0576651640
H                50.3980455983       63.4976738626      -25.8142073147
H                50.7398060029       64.4283723257      -24.4158022140
H                51.1927976343       61.7053844145      -22.2491976275
H                51.1250610207       63.4149245121      -22.3925947413
N                38.6731957860       58.9414966100      -27.7746342074
C                37.8373400756       58.6582770771      -26.5918661730
C                37.4982998869       59.9443895184      -25.7553953501
O                36.6585536572       59.9213519623      -24.8632399553
C                38.3028771767       57.3747424686      -25.8238409310
C                39.0542607415       57.5224437301      -24.4811942237
C                39.0551399894       56.2723343125      -23.5824603563
O                38.1166013627       55.5024172305      -23.4543907839
N                40.2219235482       56.0333094249      -22.9354787529
H                39.4861851299       58.3562652288      -27.9309239658
H                36.8361524717       58.4243618960      -26.9906820892
H                37.4034455687       56.7973114821      -25.6026918169
H                38.9110889487       56.7911490907      -26.5146616298
H                40.0844397511       57.8337738347      -24.6342465553
H                38.5442555189       58.2902309789      -23.8908630820
H                40.8643052239       56.7739504147      -22.6759922542
H                40.1783801193       55.2934683186      -22.2487669699
N                38.0838795767       61.0701850708      -26.1947751357
C                37.8711180759       62.3608603172      -25.6097190447
C                37.1233156578       63.3080935290      -26.5167384017
O                36.3218404253       64.0878130015      -26.0177223814
C                39.2068739732       62.9169175738      -25.1417836270
C                39.6775125563       62.1284863858      -23.9256396242
C                39.7942034024       62.7685150988      -22.6940053997
C                39.9910387009       60.7627913181      -23.9279964449
C                40.1866672523       62.1180290815      -21.5328382550
C                40.4353042896       60.1045763924      -22.7827325774
C                40.5626800916       60.7823059229      -21.5702668796
O                41.0470765080       60.2184886896      -20.4329560895
H                38.9361369049       60.9773383879      -26.7336908937
H                37.2111596999       62.2258542964      -24.7404881685
H                39.9317634582       62.8340134413      -25.9524746308
H                39.0932332149       63.9652327326      -24.8720445499
H                39.5263806235       63.8134841671      -22.6181061821
H                39.9482344222       60.2120381467      -24.8495883465
H                40.1327387440       62.6255533345      -20.5860182441
H                40.7281560236       59.0666814208      -22.8049768055
H                41.3926043095       59.3254431593      -20.6420483565
N                33.4479636622       62.0921620451      -26.1460850741
C                32.8015907567       62.3170501126      -24.8737249693
C                32.7650978423       63.8031235380      -24.5066497119
O                31.7734298754       64.1937217249      -23.9018704316
C                33.3134517552       61.3638774317      -23.7901646698
C                32.7850631623       61.6854919938      -22.3908513857
S                30.9449387029       61.8845459276      -22.0947167864
C                30.8308850419       61.1592951040      -20.4053349543
H                33.6273148460       62.9339187660      -26.6875447085
H                31.7303349944       62.0710706812      -24.9700954612
H                33.0476183160       60.3515812915      -24.0981890718
H                34.4051225021       61.4176134996      -23.7533806094
H                33.1025389924       60.8921652108      -21.7173150968
H                33.2223544229       62.6336918679      -22.0882791981
H                29.8373753039       61.4282101136      -20.0650122989
H                30.9407820100       60.0817019259      -20.4651064549
H                31.5969032237       61.5986415220      -19.7774910587
N                33.6444662861       64.6966940281      -24.9694777553
C                33.1613578548       66.0576022226      -24.9039784693
C                31.7304716845       66.0644038442      -25.4037950805
O                30.7326527737       66.4733613829      -24.8316998630
C                33.8514541085       67.0010178761      -25.8618001372
C                35.1673221716       67.5059880370      -25.3259189453
C                35.5400799363       68.7047267148      -26.1825008721
C                35.1029144404       67.8965399896      -23.8585116941
H                34.5542702692       64.4887866649      -25.3664806487
H                33.1677056543       66.4096428408      -23.8702331162
H                34.0264992377       66.5040914282      -26.8147824986
H                33.1890327902       67.8558724220      -26.0282079188
H                35.9204078742       66.7171401510      -25.4290968686
H                36.5565665149       69.0204001419      -25.9626297262
H                35.4614470225       68.4707525425      -27.2386190512
H                34.8673019411       69.5217697106      -25.9468776407
H                36.0147508066       68.4231586601      -23.5803963299
H                34.2668460820       68.5618296179      -23.6620376316
H                35.0236222468       67.0244815409      -23.2172992554
N                28.5264993565       64.0556035696      -24.1002768347
C                27.8177912717       64.8151776993      -23.0928331019
C                27.7340659797       66.3051088656      -23.4425167155
O                27.5757917438       67.1311901957      -22.5610753864
C                28.3135895084       64.5843719041      -21.6756771512
C                27.5220580275       63.4590556945      -20.9619649766
O                26.3289996061       63.2428654598      -21.2184848273
O                28.2036464572       62.8658239475      -20.0780619957
H                29.5161938912       64.2492346469      -24.1980359849
H                26.7722330964       64.4572441658      -23.1229560448
H                29.3683370308       64.3140674644      -21.6701927125
H                28.1622759206       65.5125376768      -21.1222505902
N                29.4521657925       68.7286507547      -24.7826601829
C                30.3482433533       69.6561310987      -24.1457581991
C                31.3023978389       70.2939957186      -25.1447075068
O                31.7650817457       69.7387814170      -26.1317822436
C                31.1394212391       68.9340709732      -23.0360970516
C                30.2189466893       68.2936159190      -21.9894994180
C                32.0924479015       69.8754142175      -22.3250187480
C                30.6995113215       66.9276208395      -21.5315238271
H                29.7546646934       67.7621538597      -24.8207463737
H                29.7220275288       70.4496561048      -23.7204514936
H                31.7112665768       68.1458457230      -23.5293717574
H                30.1746408743       68.9587520283      -21.1241274941
H                29.2118034149       68.2055912791      -22.3807586762
H                32.6055865062       69.3135546695      -21.5469005726
H                32.8539659135       70.2750375283      -22.9816535796
H                31.5483959802       70.6882106004      -21.8539364590
H                30.0803623501       66.5640301243      -20.7211435901
H                30.6668781882       66.2157241639      -22.3509504817
H                31.7292723201       66.9850235678      -21.1809566637
N                40.2735767017       72.9019825984      -14.6300959143
C                41.1074146546       71.9484749231      -13.9368277258
C                42.6183844089       72.3140039349      -13.9986424630
O                43.4400312893       71.7207290313      -13.3141314288
C                40.9381974830       70.5821554554      -14.6063753519
C                39.5130377449       70.0714981987      -14.5557842158
S                39.2448353606       68.6023078679      -15.6534112404
C                40.6762339505       68.4911565308      -16.7529191313
H                40.1949042182       72.7735724011      -15.6346575716
H                40.8145932463       71.9309286398      -12.8810909333
H                41.2403956119       70.7210807780      -15.6489123480
H                41.6340280556       69.8918458625      -14.1330402538
H                39.2359057547       69.7527249135      -13.5556824213
H                38.8181418479       70.8322916740      -14.9006149997
H                40.5379607264       67.5562713765      -17.2896343237
H                40.7000630467       69.3163150536      -17.4586925949
H                41.6007439372       68.4477020063      -16.1859886540
N                40.7748224878       75.0518918465      -10.6494467276
C                40.1284715798       74.6107868713       -9.4110165600
C                40.4800311876       73.1514476445       -8.9478317648
O                40.6028967577       72.9816573332       -7.7228899598
C                38.6130568996       74.6698668395       -9.5801614250
O                40.5449908882       72.2688764983       -9.8308092297
H                40.2526918812       74.8471856715      -11.4932473322
H                40.4782176216       75.2763658190       -8.6122157397
H                38.1392033528       74.3133500632       -8.6700355977
H                38.2829015395       75.6843621407       -9.7874226567
H                38.3406908337       74.0205084880      -10.4083439964
H                47.8832624776       56.5342336304      -27.4145069473
H                47.0122404218       59.1188670396      -29.3584786050
H                38.1765866254       58.8575992336      -28.5205166190
H                37.2873418637       63.2900575071      -27.5030294874
H                34.2445735452       61.6952564901      -26.0123739129
H                31.5156899849       65.7004411919      -26.3101062904
H                28.4648994340       63.1774496703      -23.9130572346
H                27.8093636869       66.6001409280      -24.3950325093
H                28.6653205090       68.7229643946      -24.3458053269
H                31.5983326446       71.2408960081      -25.0189997808
H                39.4352073225       72.8597927349      -14.3055087928
H                42.9316310647       73.0446940232      -14.6052465576
H                40.8927412119       75.9438145734      -10.6255925096
H                31.0623780523       65.9508409276      -13.4476286217
H                47.6415373553       70.9298844874      -20.2086202622
H                48.5323650051       68.9500957060      -24.5611453264
H                44.7320910334       71.6283349885      -25.8366021598
