 219 
 
N                 5.4315948239       36.9718151409       -3.6927514800
C                 5.5642490678       35.6649002056       -3.0803824528
C                 4.2407098347       35.3470242143       -2.3856227074
O                 3.6169166761       36.2209911563       -1.7854331764
C                 6.7113904087       35.6444104906       -2.0513813387
C                 8.0423743614       35.9774549956       -2.7347779191
C                 6.7660071254       34.2734440161       -1.3818802293
C                 9.1587206317       36.2818065247       -1.7426967091
H                 5.3181083999       37.7464308777       -3.0449120549
H                 5.7537069471       34.9288840339       -3.8652571121
H                 6.4984919417       36.4207148924       -1.3079041325
H                 8.3291783197       35.1369291512       -3.3687050997
H                 7.8996687805       36.8479752504       -3.3789181852
H                 7.6020325959       34.2163495425       -0.6921064914
H                 5.8565912099       34.0603389236       -0.8266158383
H                 6.8893580828       33.5028940899       -2.1378084147
H                10.0605381782       36.5661804950       -2.2784821414
H                 8.8771864074       37.1016759824       -1.0864186435
H                 9.3892626264       35.4129080826       -1.1333750645
N                 9.9705845438       29.7867251987        9.0936787528
C                10.5562291920       31.0423992722        8.6744048468
C                10.7833028728       31.0757300519        7.1649233740
O                11.1879138310       30.1005817605        6.5364856376
C                11.8947028451       31.2949973593        9.3883121499
C                11.6594173263       31.5583113966       10.8746227712
C                12.9476101303       31.7521804047       11.6776470640
N                13.8027391288       30.5819643665       11.6482388254
C                13.4912223404       29.4278326014       12.2333297387
N                12.4902908140       29.3169764327       13.0855451419
N                14.2462428311       28.3474544459       11.9797779718
H                10.4103958113       28.9259529713        8.7832352744
H                 9.8515014021       31.8331835825        8.9478361481
H                12.5264835731       30.4168315072        9.2436764801
H                12.3870445162       32.1482681044        8.9172314966
H                11.0470210370       32.4522535047       10.9937351210
H                11.1020037757       30.7219775493       11.2950415268
H                13.5219924134       32.5789089558       11.2637862356
H                12.6736447052       31.9824862430       12.7093972507
H                14.5824283773       30.6100078396       11.0031138122
H                11.9829738711       30.1241589011       13.4959574513
H                12.3561086658       28.4023819436       13.5041729274
H                14.9330483402       28.3446758507       11.2461143850
H                14.0008393678       27.4712203119       12.4146399933
N                10.4917495709       32.2522632045        6.6029487934
C                10.7916286623       32.5829424047        5.2261876435
C                12.0262658288       33.4783466869        5.2710381668
O                12.0420833905       34.4720977070        5.9977387190
C                 9.5941728568       33.3241298321        4.6237018348
C                 9.7031578583       33.6237342152        3.1271385896
C                 9.6130637981       32.3539276517        2.2870315294
C                 8.5789307227       34.5824868861        2.7345022136
H                10.2381077038       33.0337313607        7.1968816573
H                11.0147551319       31.6594710572        4.6907056620
H                 8.6992388355       32.7262803868        4.8040201677
H                 9.4936060543       34.2704621179        5.1593017365
H                10.6698993209       34.1028511659        2.9333041106
H                 9.6915765667       32.5942538624        1.2300568715
H                10.4110089099       31.6574662726        2.5291169678
H                 8.6566793969       31.8650773905        2.4534434927
H                 8.6256039256       34.8039850036        1.6712455323
H                 7.6118706362       34.1354178603        2.9533933097
H                 8.6506210478       35.5182334123        3.2816596954
N                13.0633216283       33.0776932955        4.5403294648
C                14.3072647846       33.8010413108        4.4369390061
C                14.4657375464       34.4034064565        3.0403972762
O                14.1137185812       33.7835935376        2.0409462836
C                15.5258946675       32.8793515044        4.6488734769
C                15.7120597089       32.5245519291        6.0931484612
C                15.0772712969       31.4234768665        6.6518442330
C                16.5114587482       33.3130187164        6.9089074257
C                15.2261179733       31.1287268560        7.9924317487
C                16.6540280082       33.0401912934        8.2559462619
C                16.0037068315       31.9439997724        8.8092790762
O                16.0977250976       31.6334081434       10.1305947858
H                12.9736497974       32.2446265271        3.9671113185
H                14.3096968199       34.5973731232        5.1871156476
H                15.3976483680       31.9745309537        4.0454546993
H                16.4218617897       33.3850386449        4.2763989731
H                14.4690692932       30.7864057939        6.0247573024
H                17.0431714547       34.1449783652        6.4707938481
H                14.7489682146       30.2549573783        8.4059558631
H                17.2983135694       33.6686300635        8.8526731126
H                16.6726351132       32.2682668366       10.5844799364
N                15.6683850106       36.3961436181        7.9752683142
C                14.2423684216       36.1538689916        8.1194759600
C                13.5056541074       37.3855343292        7.5647372954
O                13.7884839530       38.5114079170        7.9518023649
C                13.8736787255       35.9633770587        9.5915863105
C                12.3816677449       35.6639961973        9.7719511490
S                11.6002396835       36.7154373268       11.0225221145
C                11.4444733415       38.3055612237       10.1540947605
H                16.2003729230       36.6401744350        8.7965775062
H                13.9786174383       35.2660253448        7.5336882419
H                14.4747308624       35.1502500693        9.9980897565
H                14.1325729881       36.8844402563       10.1203710823
H                11.8327837213       35.8057445380        8.8426566033
H                12.2038911924       34.6466382935       10.1152827337
H                11.0377592826       39.0047471311       10.8745561763
H                12.4131184167       38.6436997731        9.8008201298
H                10.7614919270       38.1991023546        9.3156266373
N                12.5104850609       37.1059684209        6.7215270033
C                11.5775557194       38.1063971587        6.2703234074
C                10.1582271605       37.8427575476        6.7835844909
O                 9.3864991664       38.7760136775        6.9458280002
C                11.5982601496       38.3246970201        4.7434810013
C                11.4572048611       37.0106677018        3.9681706696
C                12.8855297586       39.0511791423        4.3636154122
C                11.0063145199       37.2392553562        2.5299085418
H                12.4398783413       36.1746613651        6.3306248221
H                11.8847244366       39.0488147352        6.7431058924
H                10.7375813015       38.9606812766        4.5097265866
H                12.4134270655       36.4795548990        3.9702673286
H                10.7250308189       36.3705935036        4.4645040471
H                12.9186188082       39.2229078400        3.2932439475
H                12.9506018617       40.0079990972        4.8754009863
H                13.7479450190       38.4501589855        4.6503007213
H                10.9818539270       36.2959544443        1.9908079923
H                10.0129445908       37.6760911361        2.5134269645
H                11.6836093988       37.9075212082        2.0076324026
N                 9.8193344707       36.5748060584        7.0745196127
C                 8.5597392264       36.2636972393        7.7245034442
C                 8.7784622935       35.1072958759        8.7013221968
O                 9.5944137422       34.2284875227        8.4604620690
C                 7.5011554787       35.8581441171        6.6820186795
C                 6.0829791764       35.8657375054        7.2364109938
C                 5.0905634478       35.3750914022        6.1927939707
O                 5.4253839480       35.0542814228        5.0606323958
N                 3.8285141501       35.3194768672        6.6311276612
H                10.4686384576       35.8047240698        6.9624774407
H                 8.2303195627       37.1701611939        8.2433161578
H                 7.5576922886       36.5634891639        5.8509849383
H                 7.7257274161       34.8621795426        6.2988582748
H                 5.9996034995       35.2127079083        8.1081022948
H                 5.7998145335       36.8766004363        7.5353468846
H                 3.6114796811       35.5801690183        7.5777934334
H                 3.0753614131       34.9172522053        6.0799785615
N                 2.0942844650       32.8851506132        3.4129471900
C                 3.4478924960       33.3796677365        3.3346958335
C                 3.5980890008       34.3001475611        2.1267121732
O                 2.8937520289       34.1831858154        1.1329336778
C                 4.4958514575       32.2472062877        3.2563838119
C                 4.5278707251       31.4956990970        4.5819925426
C                 4.2266989860       31.2893650024        2.1020865251
H                 1.7210507534       32.4219786024        2.5902165579
H                 3.6445669569       33.9537029556        4.2421347049
H                 5.4647524207       32.7307906542        3.1016633004
H                 5.2312479211       30.6696134034        4.5280868860
H                 4.8362060626       32.1665923346        5.3795077644
H                 3.5392879199       31.1010501797        4.8087805840
H                 5.0671853534       30.6110569074        1.9864636236
H                 3.3383165554       30.6957196916        2.3010051692
H                 4.0913801691       31.8314998865        1.1695846870
N                 4.5943415145       35.1875291321        2.2551149379
C                 5.0218894370       36.0173711682        1.1608709065
C                 4.8190552105       37.5131614526        1.3789028382
O                 5.2369092010       38.0958005568        2.3748383300
H                 5.0598373744       35.2809474365        3.1510260014
H                 6.0963178700       35.8644346886        1.0008264506
H                 4.4625746153       35.6972936901        0.2820221879
N                15.4119873276       32.8000462831       -1.7756783729
C                14.2504769480       32.6909272287       -0.9165325702
C                14.1511013827       31.2355055504       -0.4666908911
O                14.3986409780       30.3269929969       -1.2580238411
C                12.9573686665       33.0913193585       -1.6589710341
C                13.0373923364       34.5023941167       -2.2565224835
C                11.7597203275       32.9372507931       -0.7268140495
C                13.1825783864       35.6246573355       -1.2375805622
H                15.5541114656       32.0574928254       -2.4514305605
H                14.4037336338       33.3373631305       -0.0514724346
H                12.8460281424       32.3845079352       -2.4894036335
H                13.8841232986       34.5375688120       -2.9460538904
H                12.1248245092       34.6556601619       -2.8370327212
H                10.8680773021       33.3450471033       -1.1960356141
H                11.5770225017       31.8866980892       -0.5105800784
H                11.9425858201       33.4475925277        0.2150686596
H                13.1365882090       36.5814224372       -1.7492668672
H                12.3906616828       35.5856194348       -0.4964779090
H                14.1406219858       35.5461666933       -0.7364327629
N                13.7720334883       31.0271670825        0.7990602957
C                13.7252546563       29.6957187419        1.3766878513
C                12.6904208587       29.6316401643        2.4923239121
O                12.4905212764       30.5988959335        3.2295630870
C                15.0889572095       29.2833122029        1.9426077186
C                15.2786455264       27.7273488466        2.0253103284
O                14.2661532632       27.0152236997        1.8830887414
O                16.4395257575       27.3376688555        2.2212368569
H                13.6851786244       31.8183770730        1.4277549256
H                13.4489680029       28.9904463899        0.5854503329
H                15.8914204451       29.6673186511        1.3076590929
H                15.2533292439       29.6844401366        2.9483743298
N                12.0070068186       28.4872768680        2.5904565459
C                11.0508942127       28.2467210846        3.6572693076
C                11.5628425015       27.0799235795        4.5091750759
O                11.8137570093       25.9827167603        4.0308961766
C                 9.6718316109       27.9381257819        3.0602677187
C                 8.5204153807       28.0344194699        4.0695003105
C                 8.2785531185       29.4747528461        4.5108892713
C                 7.2409636505       27.4843461581        3.4421263382
H                12.4233925460       27.6815476068        2.1319787630
H                11.0230942306       29.1575798319        4.2598257955
H                 9.4986332116       28.6363108503        2.2382621729
H                 9.7160200955       26.9243980870        2.6540520974
H                 8.7815074555       27.4264498677        4.9425235206
H                 7.4210171348       29.5211652772        5.1766129932
H                 9.1399235273       29.8749914081        5.0360474110
H                 8.0816815450       30.0974613256        3.6426494916
H                 6.4248960672       27.5166188094        4.1580866912
H                 6.9639550765       28.0860566262        2.5795099977
H                 7.3841361263       26.4569160437        3.1205704690
H                 6.1673781969       37.1519586192       -4.1787259189
H                 3.8708761487       34.4183977194       -2.4152179373
H                 9.9744709120       29.7386533298        9.9923855969
H                14.8611681439       35.3153824218        2.9311522247
H                16.0679026070       35.6562083945        7.6545167670
H                 8.2509921684       35.0628819505        9.5497340486
H                 2.0331653061       32.2807391695        4.0769887965
H                 4.3299642415       38.0561509462        0.6962957522
H                15.3595771140       33.5588510017       -2.2567901777
H                11.7024333410       27.2018360525        5.4918508853
