 161 
 
N                19.6124763328       53.9827616933        7.1506687435
C                18.2019607901       54.2767709066        7.3507452197
C                17.5450922710       53.3213651215        8.3181041790
O                16.4585305912       53.6321432170        8.7933215391
C                17.4495330552       54.2906120172        5.9804915104
C                18.0615969050       55.3800993143        5.1541848790
C                18.9508631605       55.3262650289        4.1244362869
C                17.7073183762       56.7722962089        5.2983377363
N                19.1990672253       56.5617388978        3.5894412468
C                18.4744235746       57.4674571252        4.3269753965
C                16.9277573008       57.4994643196        6.2061715589
C                18.3993623176       58.8480485974        4.1950530530
C                16.8944765861       58.8788959534        6.0847297089
C                17.6026984021       59.5476671485        5.0776637245
H                19.8199342587       53.1488414647        6.6125890090
H                18.1462716296       55.2796767796        7.7867179690
H                17.5755153417       53.3157048232        5.5104079235
H                16.3990094038       54.4924847092        6.1738252394
H                19.4391117766       54.4577155393        3.7231509603
H                19.8976564031       56.8099067949        2.8954331432
H                16.3632964256       56.9976069984        6.9766646005
H                18.9600731451       59.3496077720        3.4220776282
H                16.2894819822       59.4535414489        6.7702020231
H                17.5304499359       60.6209269022        5.0050295718
N                18.1271226164       52.1566958118        8.5708206837
C                17.5840877766       51.2303022476        9.5667375407
C                18.2067995217       51.4923294538       10.9344011873
O                17.5088318507       51.2847118025       11.9442081514
C                17.8696700257       49.8000696559        9.1377506769
C                17.4987795038       48.8068115163       10.2333677321
C                17.1582799615       49.5525006468        7.8124151283
H                19.0328904723       51.9346659051        8.1847689422
H                16.5106891722       51.4116719903        9.6522677057
H                18.9557096443       49.7328552188        8.9873080784
H                17.6392221516       47.7926927190        9.8671603753
H                18.1208702446       48.9478851609       11.1128952507
H                16.4608397401       48.9343245133       10.5325647343
H                17.2519103696       48.5102076755        7.5195943348
H                16.0993820056       49.7730269289        7.9182601347
H                17.5748875721       50.1951751559        7.0424628932
O                14.9260067877       50.7019860622       12.3277939889
H                15.8560988586       50.9143754146       12.1434053497
H                14.4360538135       51.5328007566       12.4024602567
O                13.9320312031       52.5702086956        9.1265512820
H                14.7844092292       53.0122562972        8.9787575119
H                13.7998851264       52.5269558963       10.0776035027
N                12.8847879183       53.8428524006        2.5645272273
C                12.7356170613       52.3830594752        2.4784562523
C                11.5114752158       51.9088454467        1.7025474083
O                11.2257890954       50.7071446159        1.6635615523
C                12.7399059391       51.8301343768        3.9152820928
C                14.1934419482       51.8508847496        4.4287473398
C                14.2740884125       51.4508534309        5.9105228913
N                13.9553199260       50.0292868215        6.0080835622
C                13.2851980380       49.4710645765        7.0236823341
N                12.8898450346       50.1800954937        8.0864727914
N                12.9746678734       48.1807967153        6.9447319828
H                12.5727234284       54.2828125527        3.4205942212
H                13.5970484403       51.9939055753        1.9221491852
H                12.1040818019       52.4528764790        4.5398304286
H                12.3549016403       50.8133391528        3.9022993296
H                14.7982304908       51.1738184584        3.8285508881
H                14.5829734126       52.8619946292        4.3218739888
H                15.2804860988       51.6444904978        6.2946169792
H                13.5593123214       52.0409183262        6.4802381093
H                14.3775640681       49.4168693810        5.3101837441
H                13.2074321679       51.1224071601        8.2820683732
H                12.3176751656       49.6950346011        8.7642945517
H                13.2624362676       47.6059105683        6.1567014166
H                12.4214680250       47.7700170093        7.6829536704
N                10.5920778821       47.8475311700       11.4479428363
C                11.6478698235       48.6458154206       12.0391047823
C                12.3668419705       47.9159220364       13.1817900038
O                11.8989871262       46.9544191752       13.7931054352
C                11.0517183470       49.9561973167       12.6431521185
H                 9.9197129958       47.4357102094       12.0896400838
H                12.3595468998       48.8748792369       11.2446993375
H                11.8602728330       50.5737182761       13.0184706760
H                10.5229550233       50.4908238234       11.8594062387
H                10.3657280617       49.6892365543       13.4398448946
N                13.5557046962       48.4750088851       13.4627746255
C                14.4414759167       47.8495205476       14.4831370768
C                14.8726109170       48.8185662466       15.5613005825
O                14.8154061520       48.4961805707       16.7494517069
C                15.6727701542       47.1624816858       13.8660351270
C                15.1841004028       45.9970614303       12.9772470078
C                16.6165654731       46.7117458996       14.9923588125
C                16.3135463998       45.4128395082       12.1042444664
H                13.9623470785       49.1889217264       12.8659488039
H                13.8274238656       47.0825368145       14.9668776142
H                16.1998021390       47.8862154019       13.2342593725
H                14.7702409981       45.2068450492       13.6046014780
H                14.3988543877       46.3541289854       12.3115007379
H                17.3781693708       46.0462933960       14.5988428746
H                17.1219351760       47.5745305471       15.4228721319
H                16.0634466696       46.2177759671       15.7852043443
H                15.9138931852       44.6099586195       11.4908703227
H                16.7136408143       46.1848981956       11.4532122224
H                17.1243136076       45.0177732054       12.7064176119
N                15.3410088630       50.0096540084       15.1647037898
C                15.9643572281       50.9971819206       16.0159427709
C                14.9686170704       52.0971358153       16.3922943582
O                14.2627267436       52.6308818211       15.5340609064
C                17.0779209993       51.6417190518       15.1844557625
C                18.1205236019       52.4248179354       15.9554504960
O                17.7188309689       53.0192040902       16.9771988405
O                19.2670018631       52.3268882138       15.5013683512
H                15.2404064868       50.2605401491       14.1801101461
H                16.3697111215       50.5121712176       16.9065613007
H                17.5965671870       50.8676269472       14.6117937368
H                16.6238620760       52.3188992680       14.4542253024
N                15.1722003282       55.0592493703       14.3253122264
C                14.8169282501       54.9449615042       12.9238406296
C                13.4962588945       54.1399429452       12.9145344353
O                13.4694717943       52.9941833592       12.4832290767
C                15.8595546705       54.1802475913       12.1196884493
C                17.2093235321       54.9176718510       11.9887110542
C                17.1548834863       56.1351842873       11.0748531234
N                18.4405832526       56.8051702348       10.9119791141
C                18.9043177394       57.7267282235       11.7572434199
N                18.1908525773       58.1902965553       12.7701208988
N                20.0459321426       58.3519337857       11.4481554031
H                14.9876482804       54.2447991646       14.9006133913
H                14.6557084676       55.9496934022       12.5237381379
H                16.0467034699       53.2199520062       12.5978083591
H                15.4606329476       53.9959771094       11.1212711356
H                17.5710552725       55.1954075843       12.9827260767
H                17.9451108889       54.2127239233       11.5908966540
H                16.8297573491       55.8020081719       10.0860713639
H                16.4333416760       56.8649610465       11.4479864517
H                19.1031971832       56.3842179960       10.2714908773
H                17.3220949091       57.7709562188       13.0859809579
H                18.5769068918       58.9169850381       13.3491086917
H                20.7349259375       57.8900579401       10.8392480664
H                20.4600119399       58.9483837633       12.1467617624
N                10.4963807661       54.6685715696       11.6077780099
C                 9.7088539590       54.7405360048       10.4004323008
C                 8.5414901936       55.7303980053       10.3853878758
O                 8.2178534674       56.2437131731        9.3149820759
C                 9.2275354887       53.2912912172       10.0826267798
C                 8.1260031943       53.2073602552        9.0926075124
C                10.4997963259       52.5548989426        9.6304373590
H                11.4900791758       54.8166548440       11.4321339221
H                10.3723756806       55.0690947576        9.5969471254
H                 8.8773528176       52.8561599396       11.0235173971
H                 7.9412815124       52.1678574669        8.8269799866
H                 7.2013070719       53.6184135382        9.4908155781
H                 8.3671846384       53.7479019404        8.1777373073
H                10.2865540880       51.5054576814        9.4367249580
H                10.8773063821       52.9926011182        8.7092208362
H                11.2828215733       52.6291463649       10.3767270255
H                20.0026624146       54.6658270446        6.7134313396
H                19.1489689608       51.8209561241       11.0001374760
H                10.1111542361       48.3566370845       10.8826786375
H                14.8846476592       52.3911591809       17.3443969779
H                16.0544186545       55.2211353486       14.3993646051
H                12.6554604204       54.5546212489       13.2625284444
H                10.2189564693       55.3004224687       12.1855324568
H                 8.0592748079       55.9477573924       11.2340475359
H                13.7538299944       54.0614796287        2.4810526497
H                10.9362086593       52.5712263068        1.2226307643
