 255 
 
N                54.8316713687       56.1566600136      190.1211416004
C                53.6384570074       55.3298238105      189.9413642999
C                52.9982872792       55.4632521083      188.4769681811
O                52.5453941247       54.4962857123      187.8180358502
C                52.5723216241       55.4988304522      190.9984262923
H                54.6913794629       56.8245722525      190.7916428146
H                53.9940017084       54.3414962942      190.0117872788
H                51.8272910886       54.8453823323      190.8606581367
H                53.0097918277       55.3788325515      191.9166941141
H                52.2327959392       56.4641222570      190.9207224418
N                55.5243609616       51.8344972259      188.6983884498
C                56.0091175018       51.3483763297      190.0425213226
C                55.4308814607       52.2098377978      191.2045525044
O                55.7129795675       53.4411247952      191.2424688136
C                57.4632141658       51.3014437445      190.0607845182
C                58.0145174528       50.0708214172      189.3837255748
C                59.2857646498       50.3592783329      188.5633595793
C                59.6717519285       49.2184617992      187.7573821708
N                59.7370660363       47.9348565249      188.5741128501
H                55.9006526761       52.6699328861      188.4918427353
H                55.6343589519       50.3895182314      190.1351463205
H                57.8512830675       52.1412799041      189.5698997191
H                57.8138204564       51.3287545017      191.0199812898
H                58.2446115585       49.3692799992      190.0690246286
H                57.3418540153       49.7273913583      188.7064141329
H                59.1758393437       51.2144262770      188.0156599505
H                60.0728573938       50.5520672959      189.2462036144
H                58.9541380237       49.1096038751      187.0039531183
H                60.5688562348       49.3921326017      187.2747564435
H                59.9657508951       47.2148228373      187.9532037105
H                60.4434082084       48.0295061623      189.1959273277
H                58.9048449389       47.7716691342      188.9598330636
N                54.6309883978       51.5421243926      192.0395246336
C                53.7636589311       52.1446540608      192.9415498852
C                54.0485829361       51.6891756220      194.3697831362
O                53.4263077896       52.1608781383      195.3464771703
C                52.2546620509       51.9553431473      192.6152622842
O                51.8818201772       50.5870460980      192.8357443679
H                54.5252688102       50.5866160038      192.0096356890
H                53.9199812568       53.1709878327      192.9477351277
H                51.7080216712       52.5389875344      193.2575005093
H                52.1133587223       52.2556259315      191.6605474116
H                51.0524158363       50.4958201778      192.4348616087
N                54.9653051186       50.7275598392      194.5039050014
C                55.2034580872       50.1645188544      195.8178165960
C                55.7772889830       51.1289699773      196.8230354671
O                55.3803873353       51.1826307823      197.9758608393
H                55.4848049756       50.3497085487      193.8226498120
H                54.3164932663       49.7773842713      196.2032234503
H                55.8402691534       49.3404177758      195.7322723083
N                56.7427905286       51.9128590798      196.4289466677
C                57.3259833985       52.9129861794      197.2417908587
C                56.3181222814       54.0228629923      197.5986739148
O                56.1374075332       54.3769197000      198.7142655667
C                58.6428376539       53.4259682928      196.5604485861
C                59.7331750057       52.3927771643      196.1421925492
C                59.4928161247       51.8095113191      194.7789720074
O                58.7588167922       52.3059334181      193.8552890826
O                60.0171891171       50.6938886861      194.6361640633
H                57.1250287705       51.8582207369      195.5314884412
H                57.6111467059       52.4971293584      198.1344950758
H                58.3520745187       53.9767372759      195.7468130036
H                59.0688166772       54.0888073458      197.2437994474
H                60.6076063125       52.8271515449      196.1641135642
H                59.6478268861       51.6270940911      196.8301393498
N                55.5856879885       54.5505905285      196.6913939040
C                54.5064326941       55.3819720129      196.9346303382
C                53.5601810063       54.8212799208      197.9998605856
O                53.0723069699       55.6001224717      198.8324653570
C                53.6829582159       55.7483468183      195.6898148926
C                52.5353483349       56.7064592004      195.7938490904
C                52.8959105046       58.0817451389      196.0704072389
C                51.7887216546       56.5962308980      194.4776309386
H                55.6428077844       54.2564107852      195.7388643368
H                54.9066171164       56.2475479493      197.3199185999
H                54.3531533684       56.1621089829      195.0285864933
H                53.3373077844       54.8664670489      195.3100027784
H                51.9456689034       56.4238346833      196.5942584242
H                52.0826116249       58.6918985046      196.1009408270
H                53.4255653558       58.1586835919      196.9347144709
H                53.5129293765       58.4244933601      195.2949538367
H                50.9496301262       57.2535213008      194.5343218770
H                52.3397533856       56.8512691266      193.7063038687
H                51.3725523916       55.6597944658      194.3816709434
N                53.2608196190       53.5190357606      198.0152390504
C                52.3698892102       52.9333298368      198.9859135601
C                52.9327851067       53.0328427368      200.4574113442
O                52.1960629471       53.4359775874      201.4218700701
C                51.9901920018       51.5906925253      198.6333043586
C                50.9143844576       51.4274484148      197.5726439294
C                50.9395660164       50.0341340543      196.8211357794
C                49.5843624175       49.4570180944      196.5723673845
N                49.5328996977       48.4256477960      195.5700494519
H                53.6133564502       52.9094507262      197.3848886724
H                51.5079917571       53.5190793432      199.0191768090
H                52.8415524204       51.0853660234      198.2778828629
H                51.6858933931       51.0591409071      199.4670873820
H                49.9999966995       51.5269817601      198.0068722791
H                51.0481128487       52.1400957147      196.8613984954
H                51.4521926969       50.1122564693      195.9676242997
H                51.4442991049       49.3638768522      197.4563576878
H                49.1832574300       49.0852338339      197.4475510157
H                48.9645749845       50.2433616374      196.2796548764
H                48.6293791347       48.1344608618      195.4019700416
H                49.8790623029       48.7722766319      194.7274956206
H                50.0658564152       47.6770380709      195.8226127059
N                54.2193361593       52.6950292693      200.5712084770
C                55.0610168051       52.8703672464      201.7121211942
C                55.0143098778       54.3308037400      202.2264631390
O                54.7715795850       54.6536034602      203.4735966441
C                56.5053702750       52.4091970210      201.5422504072
O                56.6742801387       51.1282584498      200.9187481416
C                57.1538782757       52.3026836538      202.8278006455
H                54.7448844435       52.3073136990      199.8353961941
H                54.6012670488       52.2666453213      202.4549276612
H                56.9179755257       53.1422086579      200.9598628364
H                57.5217362215       50.9408807272      200.8143824676
H                58.1576401422       52.0328432672      202.7272923372
H                57.1730820303       53.2011823063      203.3530832370
H                56.7292658151       51.6109375740      203.4491023336
N                52.9380148570       56.7284233386      201.7422099338
C                51.6607319307       57.0697815180      202.2030482275
C                51.3528517889       56.5790376019      203.6867165595
O                50.8327012356       57.3848760118      204.5042582583
H                52.9212879947       56.1546289173      200.9654351196
H                51.5244479765       58.0715824265      202.2266732172
H                50.9084030152       56.6422046475      201.6398727596
N                51.6747692449       55.3019262839      203.9811746168
C                51.7616734041       54.7625740296      205.3391074731
C                52.6617769552       55.6535864677      206.2457358501
O                52.2125270543       56.1234596965      207.3994490337
C                52.2061504508       53.3768203850      205.4554736590
C                51.2292720464       52.3997248617      205.0244324034
C                51.9430958992       51.1830570563      204.7446640660
C                50.1977002487       52.0240806948      205.9643367834
H                51.9459464811       54.6639168142      203.3206911296
H                50.7781712292       54.8963024202      205.6779616400
H                53.0202163419       53.2665535531      204.8594239124
H                52.4164152563       53.1820284678      206.4179865808
H                50.6539514334       52.7479952720      204.2164382406
H                51.3457397843       50.4085102183      204.3372179326
H                52.6396859565       51.3483325694      203.9403844068
H                52.4655923477       50.8071132203      205.5061100890
H                49.5374005100       51.3121936736      205.6149268667
H                50.6308561303       51.6288025994      206.8238271148
H                49.6403516406       52.8379439319      206.2657491650
O                56.1647862372       54.2830943266      193.9403080362
H                56.7720142522       54.9458981532      194.1609454294
H                55.7156701307       54.6515019199      193.2174729616
O                54.6369440613       48.5220794088      191.7768167124
H                55.4094884425       48.7381262657      192.2224275419
H                54.0375185966       48.4069142974      192.4885206478
O                46.4510533752       48.5220794088      194.5689283743
H                45.6785089941       48.7381262657      194.1233175448
H                47.0504788400       48.4069142974      193.8572244389
N                46.2563260679       56.1566600136      196.2246034862
C                47.4495404291       55.3298238105      196.4043807868
C                48.0897101574       55.4632521083      197.8687769056
O                48.5426033118       54.4962857123      198.5277092365
C                48.5156758124       55.4988304522      195.3473187944
H                46.3966179736       56.8245722525      195.5541022721
H                47.0939957281       54.3414962942      196.3339578079
H                49.2607063479       54.8453823323      195.4850869500
H                48.0782056089       55.3788325515      194.4290509726
H                48.8552014973       56.4641222570      195.4250226449
N                48.1506740171       56.6561662415      198.3610030978
C                48.6870339148       56.8952228134      199.6477558885
C                47.8124483252       56.5213080423      200.7709050715
O                48.1575250552       55.6106313689      201.5547657861
C                49.1458314181       58.3212885034      199.8352505419
C                50.3123037329       58.5233621714      198.8876388309
S                51.0858409538       59.8766268218      199.4409460692
C                49.7170670051       60.9759488657      198.9207303117
H                47.7635095112       57.4290557212      197.9340413421
H                49.5311533489       56.2529593763      199.6868693123
H                48.4450556600       58.9495624367      199.5307846008
H                49.4778889565       58.4770556718      200.7693287980
H                51.0045602651       57.7139179110      199.0073823422
H                50.0525305234       58.5527511362      197.9281415851
H                49.9954837301       61.9831541793      199.0595106178
H                49.5650124433       60.8559037910      197.9197043341
H                48.8859286118       60.8043281892      199.4515061417
N                45.9959365307       52.9400532888      200.0163918681
C                46.9533108196       51.9894160213      199.5553256438
C                46.5013619388       51.2423472462      198.3703874908
O                47.0126978316       50.1231150449      198.1017692884
H                46.3565019875       53.8311500434      199.9801199538
H                47.8719919184       52.4282253817      199.3442610878
H                47.1609256191       51.2908721451      200.3085380285
N                46.4570090387       51.5421243926      194.3062204531
C                47.3243385054       52.1446540608      193.4041952015
C                47.0394145004       51.6891756220      191.9759619504
O                47.6616896469       52.1608781383      190.9992679164
C                48.8333353856       51.9553431473      193.7304828025
O                49.2061772593       50.5870460980      193.5100007187
H                46.5627286263       50.5866160038      194.3361093976
H                47.1680161798       53.1709878327      193.3980099590
H                49.3799757653       52.5389875344      193.0882445774
H                48.9746387142       52.2556259315      194.6851976751
H                50.0355816002       50.4958201778      193.9108834780
N                45.5023094480       54.5505905285      189.6543511827
C                46.5815647424       55.3819720129      189.4111147485
C                47.5278164302       54.8212799208      188.3458845011
O                48.0156904666       55.6001224717      187.5132797296
C                47.4050392206       55.7483468183      190.6559301941
C                48.5526491016       56.7064592004      190.5518959963
C                48.1920869319       58.0817451389      190.2753378477
C                49.2992757819       56.5962308980      191.8681141481
H                45.4451896521       54.2564107852      190.6068807499
H                46.1813803201       56.2475479493      189.0258264868
H                46.7348440682       56.1621089829      191.3171585934
H                47.7506896521       54.8664670489      191.0357423083
H                49.1423285331       56.4238346833      189.7514866625
H                49.0053858116       58.6918985046      190.2448042596
H                47.6624320807       58.1586835919      189.4110306157
H                47.5750680600       58.4244933601      191.0507912500
H                50.1383673103       57.2535213008      191.8114232096
H                48.7482440510       56.8512691266      192.6394412180
H                49.7154450449       55.6597944658      191.9640741432
N                47.8271778175       53.5190357606      188.3305060362
C                48.7181082263       52.9333298368      187.3598315265
C                48.1552123298       53.0328427368      185.8883337424
O                48.8919344894       53.4359775874      184.9238750166
C                49.0978054348       51.5906925253      187.7124407280
C                50.1736129789       51.4274484148      188.7731011573
C                50.1484314201       50.0341340543      189.5246093072
C                51.5036350190       49.4570180944      189.7733777022
N                51.5550977388       48.4256477960      190.7756956348
H                47.4746409864       52.9094507262      188.9608564143
H                49.5800056794       53.5190793432      187.3265682777
H                48.2464450162       51.0853660234      188.0678622238
H                49.4021040434       51.0591409071      186.8786577047
H                51.0880007371       51.5269817601      188.3388728076
H                50.0398845878       52.1400957147      189.4843465913
H                49.6358047396       50.1122564693      190.3781207869
H                49.6436983316       49.3638768522      188.8893873989
H                51.9047400065       49.0852338339      188.8981940709
H                52.1234224521       50.2433616374      190.0660902103
H                52.4586183018       48.1344608618      190.9437750450
H                51.2089351336       48.7722766319      191.6182494661
H                51.0221410213       47.6770380709      190.5231323808
H                55.5219416486       55.6371641884      190.3734331543
H                52.9425021029       56.3587234333      188.0353584889
H                55.7612395555       51.2438280012      188.0619936048
H                55.1744321897       55.0889079699      201.5942932079
H                53.3862643086       57.4759840034      201.5180995112
H                53.5931484082       55.8782611842      205.9592598681
H                45.5660557879       55.6371641884      195.9723119323
H                46.9426449253       56.9956456705      200.9067206078
H                45.2614467685       52.9025485310      199.4976258493
H                45.7896243512       51.6235956397      197.7804050599
H                46.6116131319       51.8639028923      195.1323900310
H                46.3396080491       50.9962640044      191.8023404632
H                44.7387706275       54.9834389339      189.4552262785
H                47.2071800763       52.7783440628      185.6973749218
