 519 
 
N                21.5649378662       35.2721669645       14.2313040323
C                20.7984302673       34.1142789409       14.6720622890
C                20.6760626044       33.1015585233       13.5417959169
O                20.7098684508       33.4682151860       12.3647292980
C                19.4229219192       34.5780599023       15.2069671967
O                18.8800034582       33.4965864567       15.9572035815
C                18.5544540718       35.0313448375       14.0638880830
H                21.3821028449       35.6529021461       13.3075911344
H                21.3371966233       33.6634596285       15.5110075571
H                19.6217059904       35.4288423752       15.8791458447
H                17.9256796584       33.6503834194       16.1461235814
H                17.6299890866       35.4629676788       14.4465361650
H                19.0803018185       35.7800754164       13.4794214130
H                18.3025417954       34.1869143973       13.4272947455
N                20.4177409550       31.8344781354       13.9013147140
C                20.0795718531       30.7886315263       12.9232822362
C                18.5527151684       30.6113589867       12.8837807443
O                17.8964705233       30.3483318558       13.8952970425
C                20.6984897575       29.4914741733       13.4317963186
C                20.3972462871       28.3064980092       12.5425853252
C                20.8705027751       28.3099803335       11.2492766141
C                19.7076521812       27.1937920631       13.0454446856
C                20.5095814046       27.2760716171       10.3976624313
C                19.3662641059       26.1449442427       12.1900961729
C                19.7447731641       26.2139783315       10.8660798864
H                20.2344926637       31.6002703086       14.8700379614
H                20.4540145216       31.0898913145       11.9452695853
H                21.7819579876       29.6245683408       13.5020024595
H                20.3136614003       29.2991050246       14.4332317405
H                21.4547911677       29.1398176868       10.8831333006
H                19.4320295366       27.1813085056       14.0883041486
H                20.8396358723       27.2794465152        9.3718849615
H                18.8245073276       25.2892288320       12.5634383022
H                19.4841680218       25.4137861919       10.1886633752
N                18.0132290326       30.7496302720       11.6555217178
C                16.5772924015       30.5569024890       11.4220348397
C                16.5076277308       29.4759182724       10.3729241462
O                17.2197140468       29.5522388147        9.3779182281
C                15.9021162973       31.7886230696       10.8408619756
C                16.1059609779       33.0907697141       11.6772386166
C                14.3844934549       31.5121637205       10.6284517515
C                15.5265093157       32.9221289123       13.1093072377
H                18.6091118528       30.8457612421       10.8404967779
H                16.1150877751       30.2428370241       12.3571079270
H                16.3600216144       31.9755611038        9.8609169834
H                17.1728834616       33.3064360755       11.7390207925
H                15.6047351505       33.9134514271       11.1703607530
H                13.8781804565       32.4355167252       10.3659856373
H                14.2391984921       30.7847947397        9.8339023159
H                13.9560621596       31.1031344099       11.5382089214
H                15.5842628157       33.8681532030       13.6402310210
H                14.4882657045       32.6186472101       13.0650213152
H                16.1020581801       32.1885310213       13.6624467923
N                15.6896618985       28.4422813395       10.6303898406
C                15.5631593139       27.3936468168        9.6389795882
C                14.0682775170       27.1821767140        9.3892596053
O                13.2611165331       27.2027383512       10.3147253926
C                16.0787893461       26.0638018015       10.1792420021
H                15.0813169468       28.4545583122       11.4414686555
H                16.0818830414       27.7079645324        8.7351452315
H                16.0937919259       25.3263114434        9.3804016593
H                17.0894715566       26.1850806662       10.5638402744
H                15.4332942618       25.7072574275       10.9766803229
N                13.7453904344       27.0723315487        8.1142680591
C                12.3866670401       26.7009330298        7.7379426746
C                12.4213340615       25.1618823523        7.6651893517
O                13.1785530002       24.5739934265        6.8882612278
C                12.0783129699       27.2643630240        6.3687186745
C                12.1952742959       28.7823013402        6.4451599307
C                10.6051181405       26.8739980438        6.0245102841
C                11.9407903063       29.4887227661        5.0852583759
H                14.4631471686       27.0677954488        7.3949269497
H                11.6934732684       27.0598200330        8.4964387766
H                12.7471355042       26.8333662227        5.6260852321
H                11.4736759235       29.1557695157        7.1678688190
H                13.1944599590       29.0460637876        6.7861092032
H                10.3245510372       27.2370862832        5.0409726354
H                10.5005453946       25.7921645298        6.0222707960
H                 9.9327237711       27.2949688228        6.7648249348
H                12.2598439454       30.5258207638        5.1291209554
H                12.4865276856       28.9980410661        4.2846713371
H                10.8818678020       29.4678364340        4.8494427365
N                11.6055178864       24.5465037049        8.5196749525
C                11.5482521259       23.0883691445        8.6672748237
C                10.8274554409       22.4436411908        7.4782095223
O                10.2597578953       23.1367448031        6.6193450682
C                10.8170965056       22.7773908864       10.0000882283
C                11.5468915138       23.3951232911       11.2106699590
C                10.7728877629       22.9949169487       12.4899492454
C                11.5336261208       23.3889517310       13.7722166837
N                10.6473105061       23.1669127760       14.9345597872
H                10.8166203946       25.0698750502        8.8941340631
H                12.5818895954       22.7314904551        8.6857354372
H                 9.8025190202       23.1691069496        9.9342340184
H                10.7603630770       21.7019993062       10.1376734038
H                12.5578813887       22.9918141190       11.2513703659
H                11.6039250329       24.4768845153       11.1203163499
H                 9.8054368433       23.4959453974       12.4806497793
H                10.6095423458       21.9198822764       12.4699685253
H                12.4371866170       22.7899548690       13.8711514549
H                11.7810548601       24.4468783188       13.7327601440
H                11.1061596722       23.5040225017       15.7998882882
H                 9.7203811168       23.6781212861       14.8248646049
H                10.4376951340       22.1678534571       15.0297767496
N                 8.1994852589       33.6090927293        4.7784557871
C                 9.0452624925       33.5879776788        5.9728218978
C                10.2519418333       34.4804982233        5.7670637081
O                10.5468150883       35.3003445307        6.6334384584
C                 9.4500988416       32.1290975654        6.3751998690
C                 8.1829396928       31.4464131304        6.8922578348
C                10.5480529945       32.1757767067        7.4494136124
C                 8.4196927956       29.9350778434        7.0826320673
H                 8.1756219210       32.7600452241        4.2232808409
H                 8.4729014177       34.0351199217        6.7947505353
H                 9.8058633399       31.6228009060        5.4768221617
H                 7.8798940652       31.8994526235        7.8345930362
H                 7.3879971127       31.5701257383        6.1595538439
H                10.7637170251       31.1768022389        7.8060684472
H                11.4623842105       32.5960462720        7.0365332683
H                10.2316356179       32.8021836773        8.2763422955
H                 7.4871101134       29.4521397612        7.3529823319
H                 8.7595225329       29.5058884117        6.1446554141
H                 9.1557054198       29.7445155759        7.8557467175
N                11.5320803595       38.5896094186        7.8568072692
C                12.8280791808       39.0358918149        8.3456351846
C                13.3783921927       40.1725012854        7.4609477766
O                13.9601610716       41.1674153946        7.8910238079
C                13.8393213388       37.8643646782        8.3753910217
C                13.6013244811       36.9438341795        9.5354083895
C                12.6509427260       35.9201919428        9.4433500146
C                14.2551320075       37.1919679255       10.7326615981
C                12.3353197360       35.1659177297       10.5683501171
C                13.9507382780       36.4187815377       11.8598608416
C                12.9811883796       35.4215667278       11.7790816332
H                11.5179921064       37.7633491399        7.2716577197
H                12.6828513860       39.4500500659        9.3508999100
H                13.7636933352       37.3411113350        7.4190623210
H                14.8422672976       38.2924982422        8.4295253385
H                12.1538910289       35.7356424803        8.5037665111
H                14.9972429689       37.9723713618       10.7890486845
H                11.5950633757       34.3871265028       10.4977841313
H                14.4766585631       36.6044271234       12.7808689458
H                12.7311405968       34.8457025082       12.6550524193
N                22.1082426349       19.0556884676       16.5120896015
C                21.2693590032       20.3006741673       16.6794096103
C                20.3688317374       20.2051962034       17.9004673476
O                20.2019718060       21.1506489358       18.6684405607
C                20.4363947920       20.4967126571       15.4159673872
C                19.6080793368       21.7321027859       15.4883792080
N                20.1036924801       22.9668310421       15.1024686218
C                18.3101493051       21.8785551724       15.9193519483
C                19.1348676324       23.8260737912       15.3295145131
N                18.0364135852       23.2271342455       15.7999094356
H                22.1204929375       18.6322810090       15.5888868326
H                21.9412886391       21.1512048160       16.8334614551
H                21.1174047859       20.5606818845       14.5652525112
H                19.7841608131       19.6284220931       15.2968565400
H                17.6144688718       21.1802367623       16.3213540604
H                19.2085142878       24.8783557696       15.1397250638
H                17.2002384122       23.6826060615       16.1366045289
N                19.7357484017       19.0386788020       18.0432012677
C                18.7755857046       18.8051047888       19.1299172800
C                19.4151280862       17.9632334464       20.2526466300
O                18.7231845692       17.3304535551       21.0555224692
C                17.5088438259       18.1023315978       18.6038919255
C                16.6708421808       18.9495383781       17.6950913433
C                16.0434269394       20.0845977091       18.1957437329
C                16.5858646941       18.6873312314       16.3313819816
C                15.2935643069       20.9296187199       17.3997486949
C                15.7024250198       19.4343934846       15.5593693382
C                15.0554894957       20.5531387604       16.0788146933
O                14.2582688708       21.3629994117       15.3462332576
H                19.8368721781       18.3035305778       17.3544608130
H                18.5295820264       19.7841027077       19.5556632755
H                17.8206474017       17.1944287462       18.0814641317
H                16.9297891071       17.8075140251       19.4817231774
H                16.1781600821       20.3351233090       19.2376391497
H                17.1299068959       17.8620317310       15.8999760858
H                14.8637717135       21.8278472126       17.8072535469
H                15.5941499740       19.1852258334       14.5144622914
H                14.0860994480       20.9850685565       14.4696702152
N                17.9773001278       26.6834509620        5.4769835572
C                18.7658931860       27.1641021726        6.6206008175
C                19.2690864689       28.5867287695        6.3243383445
O                19.7155236947       28.8656144703        5.2201337433
C                19.9927137899       26.2513197210        6.7029519078
H                18.4937135938       26.3748477366        4.6582642145
H                18.1457075901       27.1309627650        7.5161743535
H                20.6910456199       26.6053856544        7.4544339961
H                19.6819544430       25.2412888101        6.9547515542
H                20.4889827293       26.2501006723        5.7356016437
N                19.2370997208       29.4472551812        7.3531831850
C                19.5808775385       30.8696344156        7.1811572571
C                20.3151572323       31.3950151777        8.4000250679
O                20.0588318977       31.0115131958        9.5285286682
C                18.2988295102       31.7462774838        7.0678117992
C                17.5396761650       31.3505677673        5.7897190942
S                15.8630537202       32.0723246537        5.6769420359
C                14.9520739364       31.0606339198        6.9191661658
H                18.6944022368       29.2584172238        8.1912443311
H                20.1836506616       30.9829080829        6.2787911547
H                17.6847931659       31.5466874476        7.9459666636
H                18.5789928869       32.7974781518        7.0312997157
H                18.0504598591       31.7195028507        4.9040603102
H                17.4122194024       30.2723187611        5.7142528593
H                13.9138662463       31.3541249146        6.8391836665
H                15.0974302692       30.0157889540        6.6632750543
H                15.3378430235       31.2676150517        7.9094367265
N                21.1651461241       32.4117211558        8.1538305335
C                21.7172594179       33.2161110350        9.2287686981
C                21.2692676088       34.6530690768        8.9517267533
O                21.4821844975       35.1430820709        7.8373187015
C                23.2587975404       33.1826698394        9.2568938048
C                23.7299106519       34.0319198084       10.4597719407
C                23.7703020960       31.7387744631        9.4524070546
H                21.3520223990       32.6997615902        7.1998231923
H                21.3084607146       32.8506944763       10.1724466739
H                23.6398033439       33.5920039463        8.3208394937
H                24.8114217968       33.9907237915       10.5539234832
H                23.4335525647       35.0706932510       10.3406418699
H                23.2794733692       33.6460923370       11.3702126531
H                24.8554516930       31.7308731405        9.4878356099
H                23.3761413653       31.3407439849       10.3825057483
H                23.4430420973       31.0900178979        8.6435877857
N                20.5812829473       35.2717242743        9.9259163449
C                20.1698780602       36.7092566983        9.8070068280
C                20.9685458261       37.5093245253       10.8369236384
O                21.2647723009       37.0247333213       11.9277508302
C                18.6450458461       36.8299250863       10.1045630669
C                17.8477291171       36.2375829038        8.9824890049
C                17.3681243951       34.9528523565        8.8369135951
C                17.3406782121       36.9645628759        7.8530266908
N                16.6545036316       34.8236772073        7.6629755545
C                16.6013364488       36.0431322148        7.0767007837
C                17.4072555681       38.3140937714        7.4428907719
C                15.9426298153       36.4132661647        5.9211385093
C                16.7919335467       38.6464546372        6.2610199839
C                16.0521311745       37.7107856832        5.5234681801
H                20.5186170501       34.8459391909       10.8432974598
H                20.3943712803       37.0394326412        8.7922884018
H                18.4335382653       36.3148259063       11.0420542498
H                18.3943056227       37.8859702617       10.2087404817
H                17.5502573247       34.1030337304        9.4644580690
H                16.2455960089       33.9785829797        7.2914549384
H                17.9686435623       39.0446254582        8.0018908496
H                15.3807059566       35.6879677756        5.3496398462
H                16.8435040151       39.6678478835        5.9115041036
H                15.5701666763       38.0428110520        4.6132643454
N                18.4559599919       37.7542881843       17.7068675423
C                18.0534146636       36.4715619535       18.2739511848
C                16.6792796970       36.6254547201       18.9493454955
O                15.7736386515       35.8462583193       18.6389886091
C                19.1044632512       35.9729256150       19.3354000322
C                18.5615498269       34.7878734540       20.1125132356
C                20.3999645438       35.5701876666       18.6101453489
H                19.2211970890       38.2695615505       18.1334467278
H                17.9449815087       35.7396773144       17.4713137880
H                19.3187413411       36.8079682509       20.0035181493
H                19.3158660880       34.4236717036       20.8043722888
H                17.6624136599       35.0545488192       20.6596530953
H                18.3074308091       33.9722297951       19.4385714398
H                21.1546434461       35.2727420859       19.3315359683
H                20.2215011017       34.7260644792       17.9504846360
H                20.7974452859       36.3963407665       18.0286345759
N                14.0424843161       37.8101800174       16.5654680625
C                13.6956888846       36.7511491624       15.6270137082
C                12.7194312964       35.7481506580       16.2537200452
O                11.7911852090       35.2486021815       15.5950613477
H                15.0352123462       37.9445954340       16.7260555752
H                13.2219238962       37.1604671151       14.7304929405
H                14.6161683421       36.2324839826       15.3567179203
N                12.9189637747       35.4574233550       17.5416325468
C                11.9773884216       34.5332402231       18.1822325064
C                10.5896438804       35.1563001813       18.2582292726
O                 9.5676490254       34.4681788095       18.1825082513
C                12.4901326309       34.2379041965       19.6218649753
C                13.7301534669       33.3574655989       19.5215866124
C                13.4954775742       31.8694458736       19.3864124477
N                13.0762356020       31.3041716267       20.6634748940
C                13.0383627638       30.0027148849       20.9257321146
N                13.6054260252       29.1095566104       20.1272425329
N                12.3751112182       29.5787002138       22.0076102563
H                13.7385773004       35.7715078812       18.0467861580
H                11.9073080802       33.6169985478       17.5895033221
H                12.7173053547       35.1876697099       20.0996456652
H                11.6959249270       33.7456319546       20.1799591172
H                14.3304842235       33.6811649209       18.6748377947
H                14.3464762813       33.5104967433       20.4094253502
H                12.7309885209       31.6583145929       18.6319738101
H                14.4325682401       31.4062274820       19.0789119820
H                12.5169865801       31.9195460044       21.2390538825
H                14.1209538655       29.3468779687       19.2874666496
H                13.5977549413       28.1381036363       20.3919788504
H                12.0309566414       30.2424570609       22.6814625616
H                12.4264483821       28.6140909799       22.2922036013
N                 8.9988625798       34.8039715218       14.9063550997
C                 8.4907168648       33.4416812910       14.7252937005
C                 7.1988560825       33.1727456371       15.5196816573
O                 6.3620436026       32.3934823242       15.0671751589
C                 9.4950818345       32.3694936413       15.1375075878
C                10.8616365653       32.4298678668       14.4016228855
C                11.7605382629       31.2665733711       14.8472422563
C                10.6597909977       32.4544000189       12.9019046132
H                 9.9218718944       34.9475904293       15.3032770729
H                 8.2215425076       33.3216250606       13.6704033003
H                 9.6627289629       32.4524062999       16.2127166526
H                 9.0266023244       31.4049454391       14.9333362212
H                11.3643748913       33.3550692797       14.6910773974
H                12.7029031243       31.3112875138       14.3110979000
H                11.9461579523       31.3173234999       15.9151377065
H                11.2913722130       30.3088347021       14.6278761378
H                11.5748950375       32.1735804383       12.3832595499
H                 9.8705836303       31.7773712237       12.5915426226
H                10.4047206154       33.4595221216       12.5859902081
N                 9.1611989642       26.4161062287       11.5455502027
C                10.4741734773       27.1208859075       11.5477226893
C                11.1549720351       26.9223159950       12.9050995942
O                10.5461274793       26.4998776239       13.8926051403
C                10.2244219841       28.6131979589       11.2080150764
S                 9.0751055276       29.2914010821       12.4438796593
H                 8.5558269945       26.5834521684       12.3498194937
H                11.1004805070       26.6925629661       10.7625433634
H                11.1493627870       29.1853858034       11.1930564155
H                 9.7291771869       28.6866402920       10.2415736265
H                 9.9795686285       29.3786301148       13.4249721752
N                12.4718784339       27.1035066071       12.9056588331
C                13.2754955040       27.0999124614       14.1029664889
C                13.9701455445       28.4576637461       14.2136000032
O                14.3935077004       29.0104843555       13.1864549132
C                14.4124446933       26.0419821259       13.9342498042
C                15.4601046970       26.1820232114       14.9765700459
N                15.3826219317       25.6061296677       16.2136028869
C                16.6108979935       26.9014565233       14.8891891641
C                16.4672636271       25.9829991038       16.8548668479
N                17.2412121098       26.7811459315       16.0817598064
H                12.9374513256       27.4221518622       12.0629907913
H                12.6526326390       26.8919481321       14.9738879115
H                13.9756796690       25.0464862710       13.9769246036
H                14.8719653787       26.2056852121       12.9604357963
H                17.0146745534       27.4944809983       14.0929885519
H                16.7280627064       25.7018375699       17.8547635256
H                18.1498311922       27.1697392964       16.3280128831
N                14.1586356753       28.9793355524       15.4358310130
C                15.0575845062       30.1006538507       15.5909771982
C                15.8630734817       29.8423804290       16.8566752234
O                15.3346175921       29.3154402369       17.8379299777
H                13.7556617938       28.5411607872       16.2652915568
H                15.7155868668       30.1624632381       14.7249828243
H                14.5188712745       31.0458229540       15.7111802539
N                17.1334113756       30.2293494002       16.8604327960
C                17.9774081081       30.0670484250       18.0326433139
C                17.3028094875       30.7293460734       19.2145073220
O                16.6707035720       31.7676784216       19.0861933352
C                19.3291441188       30.7730658845       17.7877832580
O                19.9015068930       30.2932401250       16.5929142327
H                17.5881121985       30.5256055855       16.0029831931
H                18.1502883935       29.0031952658       18.2391192536
H                19.1701231588       31.8435860095       17.6365454908
H                19.9840829025       30.6010616287       18.6535216011
H                19.9032736799       29.3130108808       16.6070710898
N                17.5110796968       30.1222690071       20.3864316587
C                16.8671146976       30.6577241383       21.5774308332
C                17.7794050503       31.5323542499       22.4249717005
O                17.2970648966       32.1874569859       23.3435953841
C                16.3239075503       29.5291338546       22.4940760785
C                17.3838175484       28.5276451730       23.0260678877
O                18.6014381069       28.7793039850       22.8647909012
O                16.9367983906       27.5203854143       23.6131008884
H                17.9480071923       29.2095100513       20.4374969487
H                16.0414419893       31.2944416308       21.2425348554
H                15.8621532735       29.9940483381       23.3645637277
H                15.5854968453       28.9382140266       21.9554463247
N                23.5088855197       29.9338289692       21.8655575347
C                23.0203110302       28.8232492283       21.0945674434
C                23.0874544318       29.1474677285       19.5931364670
O                23.3352521178       28.2560313630       18.7691796953
C                21.6551517307       28.3526175526       21.5435118916
C                21.8182823248       27.4361630950       22.7906973917
O                22.8856658173       26.8708024210       23.0034154677
N                20.7099112162       27.2591520037       23.4923188227
H                22.8887864950       30.3897723324       22.5259830728
H                23.7111674366       27.9747861755       21.2413390819
H                21.0088662156       29.1855876325       21.8120316860
H                21.1792635596       27.7658038590       20.7556224110
H                20.8289848221       26.9221098044       24.4377274907
H                19.8887006643       27.8671092550       23.3173733511
N                22.8184916254       30.4071339632       19.2480016552
C                22.8970391733       30.7731621670       17.8401258533
C                24.3035841710       30.5471763306       17.3389095433
O                24.5322702479       30.0393939412       16.2635621632
C                22.4969640381       32.2452470032       17.7185275824
H                22.5135371171       31.0992748832       19.9224745142
H                22.2278555790       30.1359474485       17.2488735496
H                22.6548545249       32.5863072736       16.6998661402
H                21.4580780020       32.3785625798       17.9911970665
H                23.1202657709       32.8403689735       18.3820416988
N                24.7122022606       26.9444468762       16.7382508705
C                23.9495069311       26.4405298545       15.5789566447
C                24.5090689748       26.9031944239       14.2350469665
O                24.5636771699       26.1737427033       13.2266269658
C                22.4748616807       26.9215094749       15.6929636849
C                21.8086894675       26.1971539829       16.8561041651
C                20.4200078871       26.6732372826       17.2044572778
O                19.8845094941       27.5631715416       16.5219193072
O                19.8587480631       26.1292436572       18.1873457934
H                24.2512387231       27.5449572420       17.4094042662
H                23.9795025273       25.3441538002       15.5895003092
H                22.4656676776       28.0002104540       15.8563270396
H                21.9473157388       26.7112785800       14.7605754426
H                21.7300000581       25.1257328576       16.6444688154
H                22.4069050862       26.2986426106       17.7643133274
N                24.9699394564       28.1509248733       14.1984250134
C                25.5846448596       28.6770743900       12.9975605543
C                26.8257960930       27.8258567108       12.6029488812
O                27.0703303504       27.5808391082       11.4346164318
C                25.9329970283       30.1723469901       13.1565172294
C                24.6437881424       31.0046093523       13.2544811904
C                26.8382812905       30.6702260553       12.0245769119
C                24.9249966593       32.4372047436       13.7690420232
H                24.8998653868       28.7648226854       15.0048940437
H                24.8786892983       28.5550431909       12.1623025066
H                26.4768122993       30.2670421357       14.1027575646
H                24.1674073366       31.0505175228       12.2766442836
H                23.9571770569       30.5236734309       13.9510330227
H                27.0544180507       31.7247061070       12.1506730836
H                27.7827086596       30.1343839409       12.0231841126
H                26.3586813480       30.5093244569       11.0622605600
H                23.9854561865       32.9773912024       13.8663724013
H                25.3904299439       32.3800431530       14.7480444885
H                25.5758668717       32.9785857143       13.0920585145
N                25.5717321599       24.3551007315       11.2357949252
C                24.8817769142       24.2345229227        9.9320567570
C                25.6085868614       24.8644529040        8.7510820697
O                25.2858636002       24.5287274770        7.6138942950
C                23.5134133409       24.9417004520       10.0429820721
C                22.5399226064       24.1506493550       10.8788794990
C                22.4467361119       24.1234770522       12.2314046957
C                21.4344613145       23.3624878909       10.3797543691
N                21.3914924115       23.3432515675       12.6266331302
C                20.7531885281       22.8829687178       11.5121542517
C                20.9113744739       23.0930607158        9.1243315026
C                19.5776974434       22.1305957579       11.4165525389
C                19.7274697777       22.3842967491        9.0122500626
C                19.0879997619       21.8974136685       10.1537452682
H                25.2717762719       25.0842268344       11.8682215411
H                24.7595255363       23.1665387154        9.7241971550
H                23.6696092297       25.9224927602       10.4943013094
H                23.1001545730       25.0746642137        9.0444982570
H                23.0452913999       24.6265112121       12.9621240021
H                21.0642045563       23.2186245439       13.5835529584
H                21.3946370677       23.4857648818        8.2448966989
H                19.0760245719       21.7826503057       12.3060890129
H                19.2918432181       22.2059763591        8.0425278425
H                18.1758217124       21.3311691691       10.0432386612
N                26.5500027881       25.7872705732        8.9963714712
C                27.2318531249       26.4015629452        7.8763297097
C                28.7323171824       26.2439558258        7.9797127759
O                29.3278734326       26.2951881769        9.0588483278
C                26.9159011102       27.9239220583        7.9709092067
C                25.5156615130       28.2238632818        7.5141405627
C                25.3128827777       28.4147440199        6.1370856313
C                24.4580293788       28.3626203707        8.3850547612
C                24.0349551476       28.6385423639        5.6490099389
C                23.1751969892       28.6042873076        7.8904595059
C                22.9683224662       28.6918722115        6.5270949996
H                26.8478854320       26.0645934929        9.9206947308
H                26.8425284267       25.9767638081        6.9529578623
H                27.0670147497       28.2164643808        9.0110427560
H                27.6338386990       28.4712091876        7.3570653023
H                26.1511640664       28.3332131614        5.4666430155
H                24.6263683038       28.2739436259        9.4477618099
H                23.8770052783       28.7786282750        4.5904569108
H                22.3447552960       28.7090741086        8.5712087662
H                21.9713582327       28.8556495835        6.1474414705
O                18.3336489367       27.3070469333       20.0176375184
H                18.8741204459       26.8587805020       19.3285075872
H                18.6128518338       26.9362740644       20.8567183898
O                13.2926294311       23.7330836294       16.5333457654
H                13.6732597097       22.9050046402       16.2309214100
H                14.0103863420       24.3872790974       16.4817792036
O                16.3010830981       33.5828286135       16.9417801576
H                16.4283646016       32.8730619855       17.5929326813
H                16.1075246757       34.3729796593       17.4746548909
O                18.9547818894       23.5529029951       18.9150534349
H                19.2668526602       24.4378125328       18.6818335666
H                17.9961663292       23.6254985724       19.0633267904
O                12.4460833378       27.6713810676       17.3310701536
H                12.8652665161       26.9297351342       17.7752069639
H                12.0598254100       28.2415325298       18.0158099624
O                17.3780596065       21.6732842174       21.4670478455
H                18.3247489903       21.4808967415       21.4361573590
H                17.1669492263       21.8610763777       22.3977796329
O                16.3420654306       23.4358597380       19.5750346056
H                16.6474303616       22.7226270511       20.1602930076
H                15.8771670613       24.0569271033       20.1426853927
H                21.4216759724       35.9593942061       14.7945044835
H                10.8090800528       21.4482016272        7.3846017225
H                 7.3466351995       33.7694448861        5.0170641733
H                10.7981998175       34.3984690305        4.9334730255
H                10.9971886541       38.3985952077        8.5549508323
H                13.2720341229       40.1290745630        6.4675686542
H                22.9670082223       19.2439487165       16.7046506168
H                20.4103105623       17.9218575070       20.3415278480
H                17.4807916765       25.9767969005        5.7302016355
H                21.2591447226       38.4432030391       10.6285412911
H                18.7153626808       37.6371573897       16.8530580659
H                16.5328003171       37.3468754233       19.6261733616
H                13.7264369071       38.5961887366       16.2616517882
H                10.4909606425       36.1448882552       18.3720503543
H                 9.0355972194       35.2193926791       14.1088114781
H                 7.0461443764       33.6302687263       16.3956678203
H                 8.6866979258       26.6670919351       10.8231549232
H                18.7596281973       31.5683950101       22.2303858695
H                24.2096658255       29.6683798795       22.3639988490
H                25.0844954583       30.8199327240       17.9008539455
H                25.0096678891       26.2497880621       17.2270896291
H                27.4353200349       27.4718479838       13.3122854624
H                25.4733060338       23.5901588869       11.6996658901
H                29.2771315764       26.0922155237        7.1549993973
