 414 
 
N                 7.0880000000       33.7850000000       16.6820000000
C                 5.9990000000       33.5880000000       17.6270000000
C                 6.2860000000       32.4580000000       18.5740000000
O                 7.2790000000       31.7050000000       18.4720000000
H                 7.8960000000       34.2710000000       17.0590000000
H                 5.8570000000       34.5170000000       18.1820000000
H                 5.0860000000       33.3650000000       17.0670000000
N                 5.3200000000       32.2230000000       19.4620000000
C                 5.5720000000       31.1980000000       20.4900000000
C                 5.8830000000       29.8490000000       19.8280000000
O                 5.3850000000       29.4550000000       18.7950000000
C                 4.3490000000       30.9650000000       21.3800000000
H                 4.5720000000       32.8930000000       19.6000000000
H                 6.4310000000       31.5120000000       21.0920000000
H                 4.5970000000       30.2410000000       22.1520000000
H                 4.0350000000       31.8910000000       21.8550000000
H                 3.5220000000       30.5690000000       20.7940000000
N                 6.7150000000       29.0590000000       20.5190000000
C                 7.0820000000       27.7670000000       19.9430000000
C                 5.8830000000       26.8650000000       19.6870000000
O                 5.8310000000       26.1410000000       18.6890000000
C                 8.0710000000       27.0590000000       20.8890000000
O                 9.2400000000       27.8660000000       20.9520000000
C                 8.4680000000       25.7100000000       20.3470000000
H                 7.0710000000       29.3120000000       21.4360000000
H                 7.5610000000       27.9390000000       18.9710000000
H                 7.6180000000       26.9640000000       21.8810000000
H                 9.0680000000       28.6150000000       21.5380000000
H                 9.2100000000       25.2650000000       21.0040000000
H                 7.6150000000       25.0430000000       20.2900000000
H                 8.9000000000       25.8200000000       19.3580000000
N                 4.9590000000       26.8670000000       20.6400000000
C                 3.6390000000       26.2270000000       20.4420000000
C                 2.7240000000       27.2280000000       19.6870000000
O                 2.3640000000       28.2760000000       20.2380000000
C                 2.9950000000       25.9460000000       21.7850000000
C                 1.8050000000       25.0430000000       21.5800000000
O                 1.0920000000       25.0320000000       20.5680000000
N                 1.5510000000       24.2420000000       22.6140000000
H                 5.0340000000       27.5010000000       21.4320000000
H                 3.7900000000       25.3200000000       19.8600000000
H                 3.7140000000       25.4820000000       22.4590000000
H                 2.6640000000       26.8890000000       22.2260000000
H                 0.7860000000       23.5850000000       22.5610000000
H                 2.1370000000       24.2330000000       23.4330000000
N                 2.3590000000       26.8950000000       18.4520000000
C                 1.5320000000       27.8570000000       17.7330000000
C                 0.2170000000       28.2010000000       18.4560000000
O                -0.3500000000       29.2850000000       18.2090000000
C                 1.2260000000       27.1960000000       16.3830000000
C                 2.4320000000       26.3030000000       16.1690000000
C                 2.7030000000       25.7750000000       17.6030000000
H                 2.0920000000       28.7890000000       17.5970000000
H                 0.3230000000       26.5890000000       16.4640000000
H                 1.0660000000       27.9290000000       15.5940000000
H                 2.2400000000       25.4880000000       15.4750000000
H                 3.2850000000       26.8840000000       15.8230000000
H                 2.0550000000       24.9190000000       17.8170000000
H                 3.7550000000       25.5150000000       17.7330000000
N                -0.2870000000       27.2570000000       19.2490000000
C                -1.5310000000       27.5630000000       20.0030000000
C                -1.3670000000       28.7880000000       20.9440000000
O                -2.3400000000       29.4660000000       21.2570000000
C                -1.9150000000       26.3320000000       20.8230000000
C                -3.1550000000       26.5530000000       21.6950000000
C                -4.3740000000       26.4390000000       20.7970000000
C                -3.2200000000       25.5540000000       22.8850000000
H                 0.2200000000       26.4080000000       19.4830000000
H                -2.3060000000       27.8280000000       19.2790000000
H                -2.0830000000       25.5010000000       20.1380000000
H                -1.0570000000       26.0830000000       21.4530000000
H                -3.1390000000       27.5570000000       22.1230000000
H                -5.2840000000       26.5970000000       21.3660000000
H                -4.3450000000       27.1720000000       19.9960000000
H                -4.4280000000       25.4500000000       20.3470000000
H                -4.1260000000       25.7410000000       23.4520000000
H                -3.2330000000       24.5320000000       22.5160000000
H                -2.3610000000       25.6990000000       23.5330000000
N                -0.1400000000       29.0400000000       21.3970000000
C                 0.1600000000       30.1820000000       22.2600000000
C                 0.6600000000       31.4080000000       21.4970000000
O                 1.0340000000       32.4120000000       22.1120000000
C                 1.2020000000       29.7380000000       23.2970000000
H                 0.6790000000       28.5820000000       21.0030000000
H                -0.7770000000       30.4650000000       22.7540000000
H                 1.4770000000       30.5880000000       23.9140000000
H                 0.7740000000       28.9560000000       23.9140000000
H                 2.0840000000       29.3720000000       22.7790000000
N                 0.7590000000       31.2960000000       20.1690000000
C                 1.3200000000       32.3660000000       19.3600000000
C                 0.2510000000       33.3790000000       18.9350000000
O                -0.9570000000       33.1590000000       18.9920000000
C                 2.0490000000       31.7910000000       18.1340000000
O                 1.0730000000       31.3640000000       17.2040000000
H                 0.2520000000       30.5720000000       19.6750000000
H                 2.0300000000       32.8970000000       20.0030000000
H                 2.6130000000       32.5820000000       17.6370000000
H                 2.7110000000       30.9700000000       18.4340000000
H                 0.5460000000       30.6280000000       17.5830000000
N                 0.7630000000       34.5850000000       18.6330000000
C                -0.0790000000       35.6950000000       18.2500000000
C                -0.1760000000       35.8180000000       16.7320000000
O                 0.8410000000       35.7340000000       15.9740000000
C                 0.5610000000       36.9770000000       18.7920000000
H                 1.7680000000       34.7340000000       18.6510000000
H                -1.0680000000       35.5360000000       18.6780000000
H                -0.0670000000       37.8290000000       18.5430000000
H                 0.6660000000       36.9050000000       19.8690000000
H                 1.5330000000       37.1170000000       18.3280000000
N                -1.4030000000       35.9670000000       16.1920000000
C                -1.5520000000       36.3370000000       14.7920000000
C                -0.6320000000       37.4910000000       14.4520000000
O                -0.4470000000       38.3970000000       15.2960000000
C                -3.0040000000       36.7920000000       14.6770000000
C                -3.6600000000       35.8350000000       15.7030000000
C                -2.6910000000       35.8800000000       16.8890000000
H                -1.3550000000       35.4820000000       14.1310000000
H                -3.1120000000       37.8310000000       14.9860000000
H                -3.3950000000       36.6830000000       13.6700000000
H                -4.6730000000       36.1400000000       15.9720000000
H                -3.7020000000       34.8340000000       15.2730000000
H                -2.8710000000       36.7640000000       17.5060000000
H                -2.7390000000       34.9800000000       17.5010000000
N                 2.5310000000       36.8580000000       13.7270000000
C                 3.8560000000       36.1480000000       13.8030000000
C                 3.8110000000       34.9900000000       12.7720000000
O                 2.7600000000       34.6290000000       12.2320000000
C                 4.1150000000       35.6270000000       15.2030000000
O                 3.1890000000       34.5450000000       15.4740000000
C                 4.1270000000       36.6980000000       16.2680000000
H                 1.7370000000       36.4340000000       14.1840000000
H                 4.6070000000       36.8800000000       13.5050000000
H                 5.0930000000       35.1280000000       15.1800000000
H                 2.3380000000       34.9490000000       15.7190000000
H                 4.1300000000       36.2200000000       17.2440000000
H                 5.0180000000       37.3080000000       16.1660000000
H                 3.2420000000       37.3280000000       16.1870000000
N                 4.3060000000       31.7330000000       13.2840000000
C                 3.4860000000       30.5860000000       13.7090000000
C                 2.0220000000       30.9550000000       13.9140000000
O                 1.1420000000       30.1080000000       13.7120000000
C                 4.0550000000       29.9820000000       14.9960000000
C                 5.3590000000       29.2580000000       14.6640000000
C                 6.1490000000       28.9630000000       15.9330000000
N                 7.4410000000       28.3790000000       15.5620000000
C                 8.5230000000       28.6230000000       16.2740000000
N                 8.4620000000       29.5200000000       17.2610000000
N                 9.6060000000       27.8670000000       16.0910000000
H                 5.0400000000       32.0780000000       13.9080000000
H                 3.4980000000       29.8430000000       12.9020000000
H                 4.2340000000       30.7870000000       15.7080000000
H                 3.3150000000       29.3040000000       15.4180000000
H                 5.1480000000       28.3420000000       14.1110000000
H                 5.9680000000       29.9000000000       14.0270000000
H                 6.2680000000       29.9120000000       16.4460000000
H                 5.6040000000       28.2840000000       16.5930000000
H                 7.4340000000       27.7440000000       14.7730000000
H                 7.7240000000       30.1840000000       17.4140000000
H                 9.3210000000       29.6370000000       17.8150000000
H                 9.6700000000       27.2310000000       15.3020000000
H                10.4740000000       28.0930000000       16.5650000000
N                 1.7850000000       32.1980000000       14.2980000000
C                 0.4330000000       32.6570000000       14.5220000000
C                -0.3560000000       32.8680000000       13.2210000000
O                -1.5810000000       33.0040000000       13.1930000000
H                 2.5350000000       32.8590000000       14.4650000000
H                -0.1020000000       31.9250000000       15.1320000000
H                 0.4590000000       33.6080000000       15.0550000000
N                 0.7660000000       28.1770000000       11.4520000000
C                 0.9260000000       26.8620000000       12.0360000000
C                -0.0640000000       26.6060000000       13.1780000000
O                -0.6650000000       27.4930000000       13.7890000000
C                 2.3620000000       26.7220000000       12.6410000000
H                 0.7320000000       28.9650000000       12.0930000000
H                 0.7630000000       26.1340000000       11.2400000000
H                 2.4870000000       25.7100000000       13.0100000000
H                 3.0880000000       26.9140000000       11.8560000000
H                 2.4710000000       27.4500000000       13.4390000000
N                -0.1710000000       25.2990000000       13.4590000000
C                -1.1630000000       24.8450000000       14.4800000000
C                -0.5330000000       23.9840000000       15.5500000000
O                -0.7810000000       24.1930000000       16.7400000000
C                -2.3750000000       24.1220000000       13.8710000000
C                -3.1380000000       25.1340000000       12.9810000000
C                -3.2310000000       23.5330000000       15.0050000000
C                -4.2070000000       24.4360000000       12.1140000000
H                 0.2290000000       24.5900000000       12.8520000000
H                -1.5110000000       25.7660000000       14.9600000000
H                -2.0130000000       23.3050000000       13.2370000000
H                -3.6180000000       25.8870000000       13.6090000000
H                -2.4400000000       25.6370000000       12.3110000000
H                -4.2100000000       23.2570000000       14.6280000000
H                -2.7580000000       22.6320000000       15.3950000000
H                -3.3240000000       24.2410000000       15.8210000000
H                -4.6990000000       25.1680000000       11.4770000000
H                -3.7420000000       23.6920000000       11.4720000000
H                -4.9620000000       23.9470000000       12.7200000000
N                 0.2620000000       22.9800000000       15.1610000000
C                 0.8070000000       21.9540000000       16.0170000000
C                 2.2570000000       22.2680000000       16.3920000000
O                 3.0720000000       22.6110000000       15.5320000000
C                 0.8110000000       20.6650000000       15.1880000000
C                 0.9660000000       19.3700000000       15.9520000000
O                 1.6750000000       19.4240000000       16.9780000000
O                 0.3070000000       18.4300000000       15.4930000000
H                 0.5280000000       22.9300000000       14.1770000000
H                 0.1800000000       21.8470000000       16.9050000000
H                -0.1140000000       20.6090000000       14.6080000000
H                 1.6230000000       20.7180000000       14.4530000000
N                 2.5710000000       22.1620000000       17.6860000000
C                 3.9500000000       22.3760000000       18.1530000000
C                 4.9900000000       21.4890000000       17.4520000000
O                 6.1340000000       21.8590000000       17.1700000000
C                 3.9860000000       22.2740000000       19.6950000000
C                 3.7440000000       20.8280000000       20.1360000000
C                 5.3370000000       22.7520000000       20.2130000000
H                 1.8510000000       21.9190000000       18.3570000000
H                 4.2290000000       23.3990000000       17.8640000000
H                 3.1770000000       22.9040000000       20.0720000000
H                 3.6770000000       20.7730000000       21.2190000000
H                 2.8150000000       20.4390000000       19.7210000000
H                 4.5550000000       20.1850000000       19.8030000000
H                 5.3450000000       22.7270000000       21.2980000000
H                 6.1250000000       22.1030000000       19.8430000000
H                 5.5400000000       23.7650000000       19.8730000000
N                 5.7960000000       23.1470000000       13.5190000000
C                 5.7200000000       24.5900000000       13.7780000000
C                 6.5320000000       25.4540000000       12.7820000000
O                 6.8830000000       26.5830000000       13.0980000000
C                 5.9920000000       24.8790000000       15.2360000000
C                 7.4410000000       24.6490000000       15.6100000000
O                 8.1480000000       24.1030000000       14.7700000000
N                 7.7920000000       24.9990000000       16.8400000000
H                 6.5720000000       22.6500000000       13.9340000000
H                 4.6750000000       24.8600000000       13.5640000000
H                 5.6870000000       25.9010000000       15.4670000000
H                 5.3680000000       24.2050000000       15.8290000000
H                 8.7180000000       24.7450000000       17.1840000000
H                 7.1070000000       25.3860000000       17.4820000000
O                -4.3740000000       30.1880000000       19.6100000000
H                -3.6890000000       29.8610000000       20.2340000000
H                -4.8070000000       29.4250000000       19.2190000000
O                 2.4900000000       34.8580000000       22.1630000000
H                 2.0280000000       35.4830000000       22.7280000000
H                 1.9730000000       34.0360000000       22.1890000000
O                -2.9380000000       31.5800000000       17.7420000000
H                -2.3280000000       32.1520000000       18.2290000000
H                -3.5370000000       31.1850000000       18.4050000000
O                 0.1700000000       22.7390000000       19.3280000000
H                 0.4410000000       23.5320000000       19.8310000000
H                -0.3530000000       23.0960000000       18.6020000000
O                 7.8260000000       29.8820000000       23.0310000000
H                 8.6300000000       30.0050000000       23.5440000000
H                 7.1990000000       30.5360000000       23.3510000000
O                 5.1990000000       28.0080000000       23.3290000000
H                 5.9840000000       28.0730000000       23.8800000000
H                 4.4660000000       27.7770000000       23.9210000000
O                 3.5970000000       34.8350000000       19.6900000000
H                 4.2950000000       35.5040000000       19.6130000000
H                 3.2420000000       34.9340000000       20.5890000000
O                -3.4540000000       33.3070000000       22.4790000000
H                -2.6450000000       32.8270000000       22.2870000000
H                -3.4170000000       34.0980000000       21.9290000000
O                 3.0410000000       27.2720000000       25.1560000000
H                 3.4070000000       27.1040000000       26.0300000000
H                 2.1230000000       27.5170000000       25.2910000000
O                -2.7420000000       36.2600000000       20.9200000000
H                -2.4460000000       36.8480000000       21.6220000000
H                -3.1300000000       36.8310000000       20.2480000000
O                 5.6160000000       34.2690000000       23.1390000000
H                 6.1540000000       34.8600000000       22.5790000000
H                 4.7010000000       34.4600000000       22.9090000000
O                -6.5218676448       21.9507808193       10.7020000000
H                -7.0714964646       21.2207957781       10.3430000000
H                -6.0046388620       22.3126473503        9.9710000000
O                -6.8343955268       34.9414666489       22.4030000000
H                -7.3307442011       34.4497655267       23.0690000000
H                -5.9126828989       34.9139197503       22.6810000000
O                -5.8953493685       31.2019423058       21.5980000000
H                -5.4184732186       30.9139160264       20.7970000000
H                -5.3212590244       31.8542959498       22.0110000000
O                -8.2087270846       25.9130545643       24.3220000000
H                -8.2806290084       25.7825167791       23.3570000000
H                -7.6266078838       26.6693145963       24.4300000000
O                 1.0843706578       22.9771720138       12.3130000000
H                 0.8298052119       22.0202517278       12.1370000000
H                 2.0754467337       22.9557661314       12.3910000000
O                -6.2497784474       28.6260531335       22.7230000000
H                -6.5465919139       28.0699571291       21.9880000000
H                -6.1433514403       29.5183901170       22.3490000000
O                -5.0839418339       25.8733413813       16.9570000000
H                -5.6947020510       25.1474736541       16.7620000000
H                -4.3310637972       25.7573643927       16.3750000000
O                -3.0410000000       27.2720000000       27.9390000000
H                -3.4070000000       27.1040000000       27.0650000000
H                -2.1230000000       27.5170000000       27.8040000000
N                -3.5382609608       29.4265391858        7.9290000000
C                -3.1788226330       28.9211046317        9.2700000000
C                -3.0533183539       27.3844844197        9.2470000000
O                -2.3708858716       26.7964921518       10.0870000000
C                -4.2179409583       29.3512988973       10.2970000000
C                -3.7699474943       29.0672463384       11.7710000000
C                -2.7967475683       30.1288780561       12.2940000000
N                -2.2966515639       29.7350697444       13.6030000000
C                -2.5208533767       30.2767408135       14.7940000000
N                -3.2002466926       31.4079970720       14.9420000000
N                -2.1351785339       29.6187492363       15.9030000000
H                -4.4121523900       29.9149148302        7.8170000000
H                -2.1915759936       29.3210659708        9.5240000000
H                -4.4065606647       30.4185999824       10.1760000000
H                -5.1441664731       28.8110292464       10.0910000000
H                -4.6539306487       29.0441426019       12.4060000000
H                -3.2929265546       28.0874708421       11.8090000000
H                -1.9397259381       30.2252830629       11.6210000000
H                -3.2835986349       31.1016272730       12.3610000000
H                -1.7590947259       28.8681454998       13.6010000000
H                -3.1021453484       32.1019135844       14.2120000000
H                -3.2378177988       31.7449220072       15.9010000000
H                -1.4593563241       28.8833076406       15.7870000000
H                -2.1238451389       30.1583792523       16.7670000000
N                -3.7917310928       26.7935160389        8.3130000000
C                -3.8864126566       25.3355227600        8.1790000000
C                -5.1959554115       24.7013281738        8.6050000000
O                -5.3175145064       23.4747816454        8.6370000000
H                -4.2657886214       27.3524243137        7.6180000000
H                -3.6997749084       25.0487888224        7.1410000000
H                -3.0923558186       24.9128695475        8.8020000000
N                -6.2048961315       25.5297915848        8.8790000000
C                -7.5166158010       24.9638264721        9.2060000000
C                -8.2270881403       24.5472522830        7.9500000000
O                -7.9103490480       25.0098604837        6.8470000000
C                -8.3827981908       26.0135545643        9.9420000000
C                -7.8690719854       26.2573544533       11.3330000000
C                -7.7599663621       25.2163309362       12.2150000000
C                -7.4792815303       27.5264913257       11.7570000000
C                -7.2936683599       25.3939827675       13.5230000000
C                -7.0231437821       27.7065450808       13.0590000000
C                -6.9038157270       26.6492273352       13.9350000000
H                -6.1511793600       26.5068317623        8.6280000000
H                -7.3499550414       24.0904913753        9.8410000000
H                -8.3818038511       26.9332768111        9.3540000000
H                -9.4037217448       25.6272630981        9.9950000000
H                -8.0708426970       24.2318773292       11.8970000000
H                -7.5479737241       28.3675129560       11.0850000000
H                -7.2205120644       24.5526931881       14.1960000000
H                -6.7498103871       28.6999724084       13.3830000000
H                -6.5304074522       26.8019894390       14.9360000000
N                -9.0869458288       33.8979350792       18.5490000000
C                -7.8215774111       34.6396174690       18.5200000000
C                -7.4842998429       35.2577993533       17.1540000000
O                -7.0223280092       36.3859580411       17.1240000000
C                -6.6668046772       33.7477425153       18.9820000000
O                -6.9626777442       33.3192753307       20.2980000000
C                -5.3013170586       34.4108364478       18.8650000000
H                -9.0479523648       32.9054737400       18.7460000000
H                -7.9162862654       35.4875769214       19.2140000000
H                -6.6777893979       32.8407164209       18.3630000000
H                -6.8534687048       34.0564309355       20.9290000000
H                -4.5356839597       33.7609518752       19.2780000000
H                -5.0578581118       34.6005197133       17.8250000000
H                -5.2797605411       35.3521734314       19.4090000000
N                 0.7208228836       19.4954887979        8.5720000000
C                 0.1979814359       20.4359008462        9.5590000000
C                 0.1126121425       19.7600368927       10.9240000000
O                 0.2730506553       20.4699245483       11.9420000000
C                -1.1761047645       20.9059137332        9.1360000000
C                -1.8527019651       21.7180130056       10.2350000000
C                -1.0404771409       21.6428276682        7.8140000000
H                 0.0785293455       18.8190037567        8.1910000000
H                 0.8969281864       21.2725121299        9.6580000000
H                -1.7715662887       19.9945441193        8.9730000000
H                -2.7919498007       22.1251880333        9.8660000000
H                -2.0501904593       21.0999528996       11.1080000000
H                -1.2150923831       22.5403851969       10.5600000000
H                -1.9828756116       22.0945456359        7.5160000000
H                -0.3084611710       22.4407165200        7.9150000000
H                -0.6986849841       20.9628290495        7.0370000000
N                -0.1704776960       18.4697109093       10.9810000000
C                -0.2291963543       17.7900072098       12.3250000000
C                 0.8099231671       16.6358150159       12.5320000000
O                 0.9375435641       15.8808600277       11.5460000000
C                -1.6019878205       17.1022626421       12.4050000000
C                -2.6696983766       18.1309337113       12.5410000000
C                -2.7741418591       18.8540322930       13.7220000000
C                -3.4901045795       18.4579484850       11.4570000000
C                -3.7508120526       19.8543898957       13.8270000000
C                -4.4487843919       19.4594663416       11.5550000000
C                -4.5726919760       20.1568521105       12.7450000000
O                -5.4756326961       21.1689129071       12.9110000000
O                 1.4005743077       16.4668528011       13.6270000000
H                -0.2773706915       17.8905668102       10.1620000000
H                -0.0876309085       18.5512057545       13.0920000000
H                -1.7303090192       16.5020038063       11.5020000000
H                -1.5837449546       16.4358602128       13.2720000000
H                -2.0958163813       18.6529264847       14.5370000000
H                -3.3528187736       17.9237344759       10.5290000000
H                -3.8127510709       20.4571083689       14.7170000000
H                -5.0621291076       19.7131221315       10.7030000000
H                -5.8434063056       21.4459103297       12.0270000000
H                 7.3797714493       32.9856307326       16.3889501824
H                -0.1794807214       37.5238793753       13.5608517243
H                 2.6054811698       37.6737833905       14.0997599967
H                 4.6515284472       34.5082284372       12.5241934410
H                 4.7375727310       31.5276127265       12.5213985014
H                 0.1243646355       32.9000323641       12.3445162611
H                 1.4549490721       28.3455250534       10.8979706845
H                 4.7561121413       20.5509839135       17.1962221842
H                 5.0541730888       22.7458771992       13.8333140667
H                 6.7690854809       25.0893032142       11.8815630343
H                -9.6229319654       34.2429876347       19.1843405349
H                -7.6446972833       34.7363916837       16.3159029273
H                -2.9123556113       30.0100576896        7.6501655521
H                -8.9731179674       23.8828257093        7.9944615037
H                 1.0375294471       19.9497404238        7.8625266651
