 152 
 
N                 4.5134920941       34.6591154367      -18.5227411240
C                 4.9368421470       35.2073624641      -17.2005734694
C                 6.2152221037       34.4475431485      -16.8061571280
O                 6.6982720641       33.6444644100      -17.5908564981
C                 3.7595671308       34.9431146510      -16.2388771043
C                 2.5831177357       34.6632180627      -17.1728115692
C                 3.2502949978       33.8987419092      -18.3051728163
H                 4.3687325743       35.4030061696      -19.2123388934
H                 5.2970970060       34.0381756294      -18.8336912467
H                 5.1569111032       36.2735780897      -17.2805101324
H                 3.9520453181       34.0694773303      -15.6154942859
H                 3.5709750916       35.7911310196      -15.5873318648
H                 1.8095593759       34.0801460846      -16.6829843376
H                 2.1440441597       35.5920654002      -17.5342885081
H                 3.4973171655       32.8886501175      -17.9777244562
H                 2.6563633796       33.8573907536      -19.2150388250
N                 6.7006247549       34.7256969211      -15.6000263721
C                 7.7512342750       33.9445898708      -14.9781177425
C                 7.2976825683       33.6708592133      -13.5401218295
O                 6.9406262608       34.5955631019      -12.8206384580
C                 9.0778979458       34.7036642803      -14.9594061165
S                10.3816681360       33.6069777052      -14.2407745724
H                 6.2552865311       35.4134765357      -15.0040490818
H                 7.8644086054       33.0062674852      -15.5283973333
H                 9.3823735732       34.9718764107      -15.9689606137
H                 9.0107940201       35.5898338656      -14.3316675877
N                 7.2939457920       32.3901862697      -13.1807276516
C                 6.7646345650       31.9804754415      -11.8994356745
C                 7.1871504067       30.5488748033      -11.5829729461
O                 7.5184672694       29.7465480751      -12.4490227679
C                 5.2322180842       32.1356678289      -11.8774036987
C                 4.5522092449       31.3754063195      -13.0013799609
S                 2.8627967318       32.0130979032      -13.3055410744
C                 2.0186316063       31.4165460472      -11.8254496807
H                 7.5413156706       31.6509859497      -13.8334923717
H                 7.1657289305       32.6439133168      -11.1261229094
H                 4.8616699400       31.8213868277      -10.9037356605
H                 5.0102999262       33.1965902050      -11.9969194286
H                 5.0791759970       31.5255414279      -13.9423910238
H                 4.4798823519       30.3056891653      -12.8039159663
H                 0.9927779989       31.1962879375      -12.1069034599
H                 2.5003245843       30.4999628754      -11.5023618425
H                 2.0495953659       32.1757533408      -11.0494018213
N                 8.0642106649       25.3193617181      -12.5854831441
C                 8.4365252546       26.5861007894      -13.1882081473
C                 7.7669240089       26.7637650919      -14.5587813815
O                 7.5297249166       25.8111021890      -15.2870100386
C                 9.9528721473       26.6489402117      -13.4690906052
C                10.7611013319       26.8785904356      -12.2040660522
S                12.5545955946       26.9463399046      -12.5378802741
C                12.6321813368       28.3704095520      -13.6536052713
H                 7.9163979413       24.5645651386      -13.2427002771
H                 8.1479176294       27.3958252827      -12.5133756975
H                10.2588768698       25.7192807446      -13.9516229233
H                10.1303131940       27.4678133208      -14.1678029638
H                10.4781637591       27.8177331897      -11.7302578651
H                10.6270000662       26.0689011388      -11.4903562934
H                13.6164231097       28.8178414021      -13.5439739022
H                12.4855722211       28.0479776168      -14.6800736703
H                11.8702621591       29.0859316340      -13.3599858505
N                 7.5970082705       28.0478804167      -14.8969199688
C                 7.1913161788       28.5133461166      -16.2086079889
C                 7.8297259049       29.8891792596      -16.4094375542
O                 7.7243053300       30.7581444609      -15.5512068527
C                 5.6683515423       28.6633524242      -16.3056741844
H                 7.6935111642       28.7648028253      -14.1871458653
H                 7.5429395900       27.7850317600      -16.9453244405
H                 5.3870764901       28.9866035294      -17.3034805014
H                 5.2013557963       27.7039525189      -16.1000045361
H                 5.3241246862       29.3908295770      -15.5752862163
N                 8.4399744665       30.1002193236      -17.5766046313
C                 9.0722132342       31.3610443577      -17.9062265889
C                 9.4195196636       31.3628598432      -19.3845068319
O                 9.4316795651       30.3283326320      -20.0378284582
C                10.3869438566       31.5547470317      -17.0975074622
O                11.3593986434       30.5968465629      -17.4098465119
H                 8.6221656340       29.3431603181      -18.2220621948
H                 8.3839081478       32.1781995484      -17.6645990405
H                10.7612857821       32.5725937430      -17.2612193675
H                10.1555212775       31.4379583659      -16.0359351884
H                11.7724012932       30.8402990056      -18.2554577214
N                13.6571497369       33.6772307972      -14.8337869913
C                13.8396712248       34.7211436967      -13.8524985239
C                14.3124866687       34.2008007240      -12.4923375274
O                14.7484502802       34.9987103642      -11.6635335482
C                12.6000098714       35.5825495560      -13.6367132313
S                11.2376780503       34.7272036380      -12.7857905926
H                12.7417141790       33.2579780817      -14.9296767699
H                14.6322024231       35.3820330909      -14.2304465846
H                12.8447903993       36.4051425908      -12.9624819883
H                12.2487570279       35.9937486346      -14.5811758029
N                14.1771828464       32.8975182348      -12.2893656194
C                14.5160581271       32.2039832123      -11.0696496932
C                15.1294274023       30.8569749401      -11.4507105634
O                15.0368235198       30.4225560273      -12.5913792222
C                13.2562150937       31.9913085217      -10.1949555575
C                12.7575385182       33.3255572051       -9.6538074943
C                12.1514940436       31.2755598099      -10.9678958115
H                13.9518452478       32.2841082548      -13.0654717121
H                15.2466629094       32.7890575419      -10.5055881019
H                13.5723899073       31.3688671823       -9.3552559443
H                11.8704252130       33.1791032345       -9.0454812230
H                13.5232766279       33.7940702164       -9.0440395380
H                12.5063459251       34.0075295954      -10.4610400528
H                11.3281721418       31.0502426485      -10.2961199515
H                11.7737771165       31.9048185801      -11.7697637788
H                12.5281063254       30.3478005871      -11.3892605320
N                 6.0129224192       35.0649147732       -8.4796106735
C                 5.7326421492       35.5530943504       -9.8118320995
C                 6.3939806392       36.9178213236      -10.0099526934
O                 6.3578872768       37.7948610407       -9.1506333518
C                 4.2083804783       35.6297934673      -10.0692056412
C                 3.9438150967       36.1509562708      -11.4834196429
C                 3.5103849523       36.4787660928       -9.0148160957
C                 2.5206125501       35.8707288374      -11.9473099256
H                 5.9218592328       35.7252811269       -7.7149857336
H                 6.1683205386       34.8432482676      -10.5211826627
H                 3.8349178314       34.6020552558       -9.9997407166
H                 4.1437261379       37.2243740506      -11.5250364359
H                 4.6352550108       35.6704524037      -12.1797071404
H                 2.4394257734       36.4886240534       -9.1909497650
H                 3.6904106077       36.0740467303       -8.0216280603
H                 3.8796178857       37.5008794423       -9.0573428825
H                 2.3792891438       36.2551465322      -12.9543945026
H                 2.3391766694       34.7995562515      -11.9611505424
H                 1.7915635829       36.3474531209      -11.2983853497
N                 7.0406209887       37.0536513357      -11.1729324932
C                 7.6274954411       38.3052704949      -11.6150395937
C                 6.4686460616       39.2040221655      -12.0738242183
O                 5.7804221273       38.8828092545      -13.0357901776
C                 8.5680787838       38.0063915716      -12.7820488851
C                 9.6868461298       39.0287740144      -13.0032656827
C                10.3690732808       38.7483398164      -14.3410000469
C                 9.1720978917       40.4621723791      -12.9742197017
H                 6.9521262601       36.3233640608      -11.8655108691
H                 8.1597682119       38.7573318857      -10.7725065235
H                 9.0304633619       37.0343714840      -12.5946334679
H                 7.9524994903       37.9388478934      -13.6841115046
H                10.4263048811       38.9171948888      -12.2025091745
H                11.1882034102       39.4455072400      -14.5024329689
H                10.7813200673       37.7444997489      -14.3630680019
H                 9.6549770551       38.8556580334      -15.1545081337
H                 9.9484339296       41.1440971517      -13.3172639391
H                 8.3029440413       40.5775832209      -13.6200813005
H                 8.9021427040       40.7586436096      -11.9649582190
H                 7.2018716160       30.2297840909      -10.6353631091
H                 8.7146445717       25.0509775817      -12.0243185620
H                 9.6447044861       32.2219347495      -19.8441611598
H                13.8488855434       33.9977688796      -15.6526231887
H                15.6151860320       30.3165126275      -10.7637323670
H                 5.4506541640       34.3904253608       -8.2823330982
H                 6.2731439120       40.0553340650      -11.5869495329
