 345 
 
N                 7.2259740148       30.2367960335      -10.1721823173
C                 7.6585823571       28.9648661488       -9.6297631927
C                 6.8282096278       28.6628585539       -8.3846395413
O                 6.2799421985       29.5652059736       -7.7624939178
C                 9.1441059209       29.0044797788       -9.2507551162
H                 6.9401199458       30.9457671398       -9.5019009796
H                 7.5021945297       28.1913799340      -10.3855192392
H                 9.4899337957       28.0065254691       -9.0014784154
H                 9.7185857417       29.3754802128      -10.0953461621
H                 9.3111419896       29.6643860245       -8.4028217830
N                 6.7877912501       27.3766906300       -8.0241914380
C                 6.0399892972       26.9048658814       -6.8727833778
C                 6.7101246346       25.6316647728       -6.3747810435
O                 7.0002751192       24.7385479927       -7.1719658299
C                 4.5799387523       26.6092282575       -7.2702703420
C                 3.6740554103       26.2869913319       -6.0851883330
C                 2.2713251956       25.8959565410       -6.5594987503
C                 1.4115427675       25.4138186678       -5.3971836506
N                 0.1531490128       24.8023152348       -5.8801886921
H                 7.1931264748       26.6800690136       -8.6405499862
H                 6.0621865286       27.6774302841       -6.1013637888
H                 4.1924518776       27.4871045632       -7.7889532973
H                 4.5755778074       25.7693089934       -7.9691512841
H                 4.0963348297       25.4580489129       -5.5116483491
H                 3.6107932753       27.1552497204       -5.4280589439
H                 1.7871720399       26.7477254260       -7.0380903440
H                 2.3659463206       25.0869529603       -7.2873145662
H                 1.9794652811       24.6784110026       -4.8204796209
H                 1.1486376956       26.2532512581       -4.7531308382
H                -0.2736894134       24.2367931988       -5.1454248777
H                -0.6598663862       25.5590853312       -6.1807312690
H                 0.3301790616       24.2108563723       -6.6949580085
N                 6.9550561391       25.5583661336       -5.0703682725
C                 7.4333258044       24.3457155765       -4.4468876410
C                 6.3089693622       23.7088656708       -3.6209149938
O                 5.7650687762       24.3168882490       -2.7097496287
C                 8.6139453837       24.5831784016       -3.4873445271
C                 9.1363288649       23.2408388599       -3.0513856599
C                10.1374291723       22.6162408206       -3.7861466780
C                 8.5708847880       22.5579817366       -1.9824581374
C                10.5652239103       21.3404880999       -3.4615318569
C                 8.9864491769       21.2751384136       -1.6702278282
C                 9.9877598945       20.6616924665       -2.4028351615
H                 6.6876018626       26.3245750013       -4.4591748424
H                 7.7294301089       23.6644553369       -5.2490732829
H                 9.3848237542       25.1523060991       -4.0062046149
H                 8.2534573661       25.1609298812       -2.6340310851
H                10.5685897013       23.1289336532       -4.6294699457
H                 7.7963665676       23.0283140429       -1.3968452346
H                11.3458308385       20.8732948418       -4.0430657078
H                 8.5118102888       20.7504387130       -0.8570091852
H                10.3201871776       19.6664517217       -2.1522251917
N                 6.0596373516       22.4318843493       -3.9324412000
C                 5.0717484244       21.6646613462       -3.2166819344
C                 3.6542516605       22.0070056475       -3.6758009684
O                 3.4444251363       22.7257863960       -4.6486157304
H                 6.4340497559       22.0478079110       -4.7949148767
H                 5.2691801175       20.6005753270       -3.3655916637
H                 5.1592474760       21.9153629671       -2.1549491623
N                 2.6722408995       21.5142245003       -2.9157647563
C                 2.8129095928       20.5303365713       -1.8597201578
C                 3.0096329142       19.1325588168       -2.4601798936
O                 2.7152250046       18.9016009958       -3.6289509799
C                 1.4572346725       20.6076640322       -1.1491401508
C                 0.4844568326       20.8802344979       -2.2917339062
C                 1.2740510241       21.7997987912       -3.2182280499
H                 3.6270305057       20.7751107712       -1.1759981135
H                 1.2256565095       19.6926901048       -0.6115296674
H                 1.4835582660       21.4446599984       -0.4528823958
H                 0.2469832736       19.9440277692       -2.7959505904
H                -0.4385374411       21.3407179375       -1.9504001644
H                 1.0772757257       21.6040614649       -4.2738718239
H                 1.0766286831       22.8557650265       -3.0069013262
N                 3.5022268618       18.2001596119       -1.6321668951
C                 3.5316757176       16.8260980747       -2.1080115180
C                 2.1551302297       16.5092738175       -2.7031410516
O                 1.1240236624       16.8684226441       -2.1408718997
C                 3.8646627869       15.8496454824       -0.9847958291
C                 5.3524374652       15.8485825110       -0.6224299054
C                 5.5421518274       15.1099753631        0.7006254407
C                 6.1875737092       15.1986515044       -1.7245405594
H                 3.4425155795       18.3640361200       -0.6328491964
H                 4.2831981259       16.7876108944       -2.9011260950
H                 3.2624215799       16.1224058636       -0.1151229979
H                 3.5587604613       14.8427391414       -1.2810663271
H                 5.6685262340       16.8895375634       -0.5081161079
H                 6.5883715673       15.0996830693        0.9880266584
H                 4.9611397902       15.5890271823        1.4842603628
H                 5.1989219949       14.0819714874        0.6056632007
H                 7.2286794080       15.1447326441       -1.4223623988
H                 5.8375204348       14.1870203590       -1.9213029518
H                 6.1299258464       15.7652201876       -2.6511923703
N                 2.1503142926       15.8374480660       -3.8645010640
C                 3.2429710571       15.0681204110       -4.4283623285
C                 4.2737747998       15.8257611621       -5.2766804711
O                 5.1967257857       15.1984904377       -5.7814908514
C                 2.5292267781       14.0460966916       -5.3315658622
C                 1.3090495811       14.8223472394       -5.8167383539
C                 0.8953179413       15.5939152728       -4.5702440437
H                 3.8100697192       14.5574984261       -3.6436866328
H                 3.1771193100       13.7093664746       -6.1374301717
H                 2.2176155558       13.1860231998       -4.7400126392
H                 1.5911562066       15.5112493685       -6.6124532420
H                 0.5133344325       14.1739982469       -6.1729990277
H                 0.4076953185       16.5466368008       -4.7849440945
H                 0.2276001955       15.0042375900       -3.9335625917
N                 4.0924928139       17.1374388770       -5.4768761420
C                 5.0244089856       17.8451927345       -6.3217639047
C                 6.1570540058       18.4912382035       -5.5167525561
O                 6.0881140052       18.6637936098       -4.3096518763
C                 4.3081747629       18.9051708033       -7.1668154948
O                 5.0741182503       19.1256551686       -8.3275472936
H                 3.4446423334       17.6816543777       -4.9103833394
H                 5.4606803395       17.1013723813       -7.0001817894
H                 3.3104742322       18.5335469740       -7.4302303401
H                 4.1884184961       19.8343548918       -6.5923170168
H                 4.5799519769       19.7493926745       -8.8816987690
N                 7.2176458411       18.8253227180       -6.2665575190
C                 8.3582195711       19.5637200713       -5.7503069306
C                 8.4096913228       20.9288512352       -6.4520494854
O                 7.4152568166       21.6486959635       -6.4217482298
C                 9.6395785829       18.7332360720       -5.7937815200
C                 9.6110744457       17.5895076085       -4.7732309435
C                11.0353465504       17.1375808301       -4.4494023316
C                11.0845408595       16.0712684524       -3.3588189240
N                12.4328422019       16.0555868173       -2.7491790095
H                 7.1298616650       18.7333541218       -7.2697627198
H                 8.1143654045       19.7851089484       -4.7006364998
H                 9.7971850992       18.3355753484       -6.7972212336
H                10.4708350584       19.3874617872       -5.5309551200
H                 9.1321250529       17.9462681476       -3.8601928841
H                 9.0186598354       16.7575485579       -5.1535657262
H                11.5145316816       16.7716660715       -5.3576105059
H                11.5959564878       18.0055786122       -4.0957822075
H                10.3664807219       16.3161640794       -2.5760631422
H                10.8438071752       15.0886189336       -3.7664777181
H                12.5124130589       15.3284412207       -2.0351108146
H                13.1583068923       15.9251060538       -3.4579002153
H                12.6142266527       17.0510328392       -2.2453599672
N                 9.5604541874       21.3126032005       -7.0207873109
C                 9.6592038825       22.5821571947       -7.7121006390
C                 9.0371337017       22.4609426514       -9.1136243144
O                 9.2971901299       21.5238639124       -9.8546199530
C                11.1209266344       23.0328690512       -7.8912018540
C                11.6625394017       23.8309030904       -6.7500066474
C                12.7346301616       23.5421434257       -5.9502445029
C                11.1580648854       25.0916544338       -6.3020705351
N                12.9141006747       24.5243162380       -5.0165734832
C                11.9683931496       25.4862476680       -5.2056634475
C                10.1086176813       25.9143227038       -6.7127089520
C                11.7153204979       26.6580588521       -4.5002753296
C                 9.8679235636       27.0726919332       -6.0101637701
C                10.6556944545       27.4381568805       -4.9128821920
H                10.2893210679       20.6399699962       -7.2007427044
H                 9.0947555283       23.3158527295       -7.1324455320
H                11.7466548724       22.1568071369       -8.0569843288
H                11.1560932407       23.6555901115       -8.7882468469
H                13.3877074846       22.6917727249       -5.9678684407
H                13.6755745654       24.5853844729       -4.3570038328
H                 9.5051466540       25.6553910289       -7.5677379969
H                12.3278853507       26.9407782222       -3.6544020707
H                 9.0580012536       27.7231325910       -6.3031756023
H                10.4269347025       28.3468520279       -4.3748811952
N                 8.2639150578       23.5005324134       -9.4401193385
C                 7.5822896134       23.6717886418      -10.7065572877
C                 7.9227391852       25.0862598528      -11.1901904537
O                 7.9884711021       26.0005851678      -10.3805858812
C                 6.0640164556       23.5626279580      -10.4740583483
C                 5.6956845852       22.1840436855       -9.9156106423
C                 4.5997588977       22.1957919135       -8.8613540300
O                 3.5787429718       21.5253683686       -9.0031070499
N                 4.8361886631       22.9364781899       -7.7761745128
H                 7.9742703737       24.1526967429       -8.7170887363
H                 7.9396866228       22.9014544297      -11.3944701669
H                 5.7860747584       24.3430275771       -9.7629290376
H                 5.5340814513       23.7481566366      -11.4075725558
H                 5.3873532425       21.5185150811      -10.7215772876
H                 6.5653652096       21.7387853272       -9.4269539192
H                 5.7367657565       23.3711565330       -7.6129445249
H                 4.2019781336       22.8896013826       -6.9905510703
N                 8.1464884731       25.2488022985      -12.4998323570
C                 8.4778696620       26.5296138241      -13.0937515254
C                 7.7745878615       26.7215837021      -14.4441744751
O                 7.5052692790       25.7818903926      -15.1770539523
C                 9.9907970746       26.6422303640      -13.3772044906
C                10.7780689517       26.9270255698      -12.1098925529
S                12.5711971707       27.0656696279      -12.4195591491
C                12.5744371567       28.4807831623      -13.5536816508
H                 8.0426826892       24.4852556617      -13.1542268098
H                 8.1740102359       27.3178649330      -12.3996832318
H                10.3391523675       25.7165418712      -13.8384620901
H                10.1427623013       27.4534339288      -14.0900393840
H                10.4495021827       27.8622105903      -11.6586671154
H                10.6682643187       26.1243370200      -11.3844250239
H                13.5390315293       28.9713472506      -13.4568215213
H                12.4354585793       28.1397880966      -14.5754333187
H                11.7831596959       29.1644624611      -13.2620711659
N                15.0699817580       21.6945365304       -2.5684719231
C                13.7154119371       21.7552119763       -2.0529982414
C                13.5761073525       23.0022877388       -1.1611428613
O                14.3725898153       23.2204658588       -0.2638584849
C                13.4071957583       20.5365715105       -1.1947754581
C                13.5250200715       19.1905590361       -1.9432629498
O                14.3814103300       19.0350508594       -2.8196192755
O                12.6942384111       18.3292223709       -1.5585123174
H                15.4517035978       20.7588078810       -2.6823517005
H                13.0145980599       21.8222474890       -2.8934566774
H                14.1017365134       20.5114942660       -0.3509743772
H                12.3894786529       20.6210764674       -0.8162635927
N                12.4750985886       23.7313740688       -1.4296120928
C                12.0216363984       24.8908820109       -0.6916491916
C                12.8279249829       26.1768132360       -0.9192309683
O                12.3749657172       27.2339624780       -0.4873993362
C                11.9542021738       24.6054400295        0.8242979101
C                11.0165320168       23.4828026027        1.1019062255
C                11.3310627570       22.1769087855        1.3262943621
C                 9.5881389011       23.5624829080        1.1285237027
N                10.1922478239       21.4331060452        1.5396641757
C                 9.1054824899       22.2580898774        1.3847753484
C                 8.6844872870       24.6063493633        0.9494137363
C                 7.7438982478       21.9902811454        1.4671543831
C                 7.3351821210       24.3350202810        1.0252744842
C                 6.8695355019       23.0399259825        1.2760513547
H                11.9046383992       23.4637371135       -2.2201866455
H                11.0044199759       25.1023258561       -1.0452972578
H                12.9577071291       24.3791796238        1.1864243626
H                11.6372100096       25.5182072616        1.3328066194
H                12.3074264710       21.7389833537        1.3955005745
H                10.1670740875       20.4315661099        1.4285572796
H                 9.0525600050       25.6007260324        0.7488692475
H                 7.3682864779       20.9971978253        1.6503261990
H                 6.6218456252       25.1351250596        0.8844869585
H                 5.8052306467       22.8601903358        1.3021888597
N                 3.8588474639       34.0522795726       -2.4026515201
C                 2.6233310827       33.5988211691       -1.8096882347
C                 2.7947291181       32.1563427458       -1.3714850115
O                 3.7192332745       31.4635873079       -1.7765911472
C                 1.4601853367       33.6901519247       -2.8266761624
C                 1.6567847799       32.7098722679       -3.9482557861
C                 1.0725205931       31.4481701484       -3.9014757094
C                 2.4577871058       33.0288728833       -5.0361729858
C                 1.3036424829       30.5165145940       -4.8921633529
C                 2.6950523757       32.1073267520       -6.0399860594
C                 2.1365025774       30.8374816822       -5.9604050163
O                 2.3879391538       29.8757720636       -6.8887490826
H                 4.4170197679       33.3601476453       -2.8959746064
H                 2.4071673206       34.2318038387       -0.9422507690
H                 0.5213426527       33.5006501578       -2.3053418103
H                 1.4485752809       34.7115161656       -3.2077592697
H                 0.4209619728       31.1967311094       -3.0772878065
H                 2.9099632043       34.0077655101       -5.1048578923
H                 0.8407535171       29.5425186666       -4.8859173638
H                 3.3282598599       32.3712529061       -6.8767763504
H                 2.9675666282       30.2282394501       -7.5773228565
N                 1.0991176766       22.2915867119        2.1745664825
C                 1.9557604273       23.4323498163        2.4441693243
C                 2.8741526299       23.6358124594        1.2370084906
O                 3.3561269120       22.6653340200        0.6672396932
C                 2.7861635943       23.1688528127        3.7222808030
O                 1.9250863991       23.0737733744        4.8394036917
C                 3.8006398344       24.2834615869        3.9458244631
H                 1.5628554975       21.4747950908        1.7992485890
H                 1.3185738761       24.3044376971        2.6112970656
H                 3.3139615821       22.2127696566        3.5962491978
H                 1.4577791747       22.2256307980        4.7894090503
H                 4.1477182412       24.2522325702        4.9735180590
H                 4.6496991064       24.1521849442        3.2819284219
H                 3.3458206304       25.2485107436        3.7428160461
N                 3.0900863479       24.9024878683        0.8749619138
C                 3.7614596768       25.2516869304       -0.3609519585
C                 3.9647490179       26.7586312450       -0.4247735305
O                 3.2933987380       27.5216829959        0.2587127837
C                 2.8936678301       24.8371200690       -1.5786593783
C                 1.5700420194       25.5449308251       -1.5855691671
C                 1.4291157993       26.7934273943       -2.1836070666
C                 0.4609110211       24.9805993757       -0.9671900231
C                 0.2184041240       27.4572247871       -2.1657207579
C                -0.7573405076       25.6345609049       -0.9408463326
C                -0.8855319534       26.8822676337       -1.5405405776
O                -2.0567800430       27.5772871588       -1.5346303691
H                 2.6452032794       25.6682965751        1.3727982712
H                 4.7126821726       24.7169250894       -0.4376718851
H                 3.4587554320       25.0466244142       -2.4864249227
H                 2.7507514416       23.7596785066       -1.5066584880
H                 2.2723384931       27.2481449716       -2.6816816258
H                 0.5452189957       24.0140910423       -0.4928821093
H                 0.1001276881       28.4102585594       -2.6573500145
H                -1.6043249751       25.1848321922       -0.4423233940
H                -2.7600861581       27.0438085325       -1.1415492747
N                 4.8604384983       27.1785241530       -1.3276386735
C                 5.0095834940       28.5861189949       -1.6334428468
C                 5.5102532614       28.7712014663       -3.0580948144
O                 6.1201930888       27.8865394734       -3.6503471833
C                 5.9439322793       29.3152816418       -0.6409307899
C                 7.3975941123       29.0338570520       -0.8291040385
C                 8.1484226656       28.0964657234       -0.1785627697
C                 8.2987062054       29.7508639604       -1.6754853645
N                 9.4569776417       28.1743322323       -0.5693899533
C                 9.5824534985       29.1859562010       -1.4708966629
C                 8.1636175357       30.8313462402       -2.5450389792
C                10.7154287240       29.6738588776       -2.1091696339
C                 9.2878216782       31.3018680046       -3.1826338787
C                10.5469227993       30.7335039529       -2.9728757903
H                 5.4037191496       26.5203986856       -1.8753049416
H                 4.0233742922       29.0523623250       -1.5485825522
H                 5.7659457839       30.3857728187       -0.7539036276
H                 5.6409355780       29.0157300437        0.3642608393
H                 7.8302424124       27.3756505443        0.5473305585
H                10.2447580975       27.6513867908       -0.2167117639
H                 7.2052391304       31.3002655921       -2.6983207616
H                11.6887930834       29.2443766156       -1.9129806381
H                 9.2118044257       32.1422547206       -3.8563543268
H                11.4022282934       31.1388742051       -3.4911970297
N                 5.1880586326       29.9389037678       -3.6147854927
C                 5.6081423090       30.2856255637       -4.9406877926
C                 5.8288008640       31.7788256859       -5.0788979096
O                 5.6718485114       32.5636111170       -4.1495487174
H                 4.7366304371       30.6607803132       -3.0703317444
H                 6.5521001100       29.7735920092       -5.1545237219
H                 4.8729560887       29.9612428976       -5.6849833089
N                -3.7455500501       31.3373670669       -3.8058395751
C                -3.9793890134       30.3631475475       -4.8582009957
C                -5.3019868941       29.6667174941       -4.5050111454
O                -5.4835092839       29.1614698639       -3.4058187082
C                -2.8243485245       29.3735680368       -4.9231059718
C                -2.9615480580       28.4004910456       -6.0872827047
C                -1.6830578115       27.5506080977       -6.2047040984
O                -0.5802591965       28.0808067048       -6.0778177797
O                -1.8594197410       26.3126111157       -6.4182947142
H                -3.5049598527       30.9375062969       -2.9098444667
H                -4.0892916294       30.8983708455       -5.8041355023
H                -1.8852371700       29.9205719883       -5.0381905861
H                -2.7842359094       28.8128630509       -3.9851030008
H                -3.8162582991       27.7349228235       -5.9510700948
H                -3.0953817250       28.9477138276       -7.0249061977
H                 7.8967706623       30.6051812954      -10.6458110290
H                 7.5212313567       27.6393529073      -14.7499687973
H                15.1001821793       22.0821374410       -3.3801698156
H                13.6991977805       26.1406476915       -1.4086957429
H                 3.6836255520       34.6956811254       -3.0070782927
H                 2.1420538269       31.7464235386       -0.7343184650
H                 0.7013296532       22.0276363591        2.9375179225
H                 6.1149804860       32.1628247893       -5.9567623141
H                -3.0652704137       31.8772357424       -4.0419781561
H                -6.0379298413       29.6191422874       -5.1803811019
