 355 
 
N                63.7638937013        2.1653324868       22.4616280993
C                63.6816860507        2.7502044844       23.8061971673
C                64.0570003000        1.7037523913       24.8593099714
O                64.1537676084        2.0317830373       26.0355484816
C                62.3024888085        3.3792120973       24.1717912805
C                62.4171221969        4.7075629518       24.9419952314
C                61.1329403640        5.3921136971       25.6059722021
O                60.2765661485        4.7418691056       26.2127208129
O                61.1185381518        6.6241340558       25.5122674315
H                62.9622727318        2.3950104232       21.8801805097
H                64.4318621476        3.5466834648       23.9135637967
H                61.7343450441        3.5315140932       23.2520197810
H                61.7295219121        2.6810760074       24.7859220413
H                63.1086309501        4.5609400727       25.7772346847
H                62.8224542730        5.4864148417       24.2926146756
N                64.2459259092        0.4316204609       24.4565875806
C                63.9768115937       -0.6125347232       25.4223187690
C                65.0491319763       -1.6961469653       25.5568972575
O                65.9326169026       -1.8867137055       24.7546410219
C                62.6295547905       -1.3031724080       25.0814357662
C                61.3522284914       -0.5354576778       25.4073132191
C                61.2542117030        0.6231746037       26.1322948232
C                59.9940587555       -1.0264146393       25.2967287684
N                59.9648036862        0.8654124349       26.5020307241
C                59.1757617808       -0.1388871416       26.0418316975
C                59.3801756530       -2.1252170070       24.6794621307
C                57.8346640960       -0.4042482300       26.3065966338
C                58.0291518940       -2.3377105937       24.8652199694
C                57.2644579453       -1.5146666948       25.7067033721
H                64.1504285688        0.2551169240       23.4639745252
H                63.8954209409       -0.0905209915       26.3844050431
H                62.6845052207       -1.5833770075       24.0314894419
H                62.5667408135       -2.2334384878       25.6533733523
H                62.0260124800        1.2868147149       26.4715914136
H                59.6623626647        1.6968322311       26.9840553247
H                59.9818549423       -2.8607593904       24.1778369373
H                57.2632681322        0.2740026288       26.9232958042
H                57.5525370468       -3.1890221566       24.4090377015
H                56.2226506839       -1.7324361530       25.8770374910
N                64.8336443558       -2.4360372426       26.6913266084
C                64.9341247642       -3.8823321485       26.8333087672
C                64.0906590552       -4.4249519474       28.0226448691
O                63.4240233403       -3.7540825264       28.7935994306
C                66.3760699118       -4.4121755957       26.9540252267
O                66.3676234772       -5.7909152346       26.6383146077
H                64.1534697935       -2.0590062963       27.3427131303
H                64.5185220524       -4.3312536855       25.9173710706
H                66.9888602178       -3.8473654210       26.2473162312
H                66.7604994991       -4.2509576401       27.9680417715
H                67.2737538747       -6.1319587162       26.6401526752
N                64.1877478661       -5.7487188614       28.0453807205
C                63.5133615914       -6.6605356742       28.9333354771
C                63.9918053298       -8.0423723799       28.3717767643
O                63.7939392315       -8.2763790962       27.1918653889
C                62.0004903149       -6.3741565182       28.8264568665
C                61.2159832919       -7.0026916742       29.9317248380
C                61.3374167023       -6.5333074450       31.2336145375
C                60.3874064865       -8.0862016606       29.6664765984
C                60.6625901246       -7.1725130165       32.2574066111
C                59.7053834109       -8.7173354970       30.6884744607
C                59.8563044989       -8.2678626330       31.9905216361
H                64.8494954960       -6.1715374808       27.3990628177
H                63.8322033823       -6.5154122994       29.9715474793
H                61.8828278696       -5.2912870970       28.8753020557
H                61.6452873366       -6.7198541321       27.8549192794
H                61.9334126315       -5.6572338063       31.4461448874
H                60.2741126822       -8.4306454325       28.6512890932
H                60.7349253738       -6.8030838087       33.2703685200
H                59.0522185944       -9.5507501063       30.4796524448
H                59.3211422459       -8.7492139529       32.7963917918
N                64.7193728731       -8.7716611631       29.2380994295
C                65.4164237465      -10.0961277323       29.4471943358
C                65.3956360455      -11.0976694292       28.2562869415
O                64.7615466697      -12.1317402539       28.2024493506
C                64.9900474692      -10.6424966918       30.8394486087
C                65.2758467562       -9.5142584487       31.7966420949
C                64.3845664370       -8.5079501484       32.1060063282
C                66.5893757905       -9.0100318765       32.1423154111
N                65.0463978453       -7.4022535499       32.5829949242
C                66.3951486518       -7.6799034631       32.6215419698
C                67.8973847543       -9.5341696462       32.0943989135
C                67.4801592966       -6.8800231672       32.9868117952
C                68.9599178977       -8.7333140929       32.4682587293
C                68.7520475271       -7.4143658018       32.8959942961
H                64.8205550108       -8.2988893602       30.1316821289
H                66.4715487912       -9.8093838716       29.5788840406
H                63.9318530806      -10.8982176816       30.8380519612
H                65.5750478874      -11.5293452518       31.0706253301
H                63.3140437727       -8.5079347334       32.0090936791
H                64.6062498359       -6.5832000446       32.9648380957
H                68.0607080291      -10.5474948863       31.7623810075
H                67.3221338016       -5.8688592048       33.3333783993
H                69.9669990377       -9.1179020421       32.4381882324
H                69.5944074330       -6.7981745394       33.1712488730
N                66.2490065682      -10.6626113339       27.2922679994
C                66.0885422141      -10.7240172917       25.8520980557
C                66.3731953097       -9.2687349284       25.3207221959
O                67.4956811753       -8.8303103785       25.5060350956
H                66.8814758325       -9.9164112763       27.5573270131
H                66.8749439409      -11.3737203839       25.4587165064
H                65.0930357030      -11.1102103350       25.6555936372
N                65.3673987865       -8.6516658197       24.6406397816
C                65.2330710122       -7.2116920919       24.2420238387
C                63.9784721393       -6.9915990467       23.3651117291
O                63.8141959766       -7.4409455755       22.2441387852
C                66.4930103567       -6.6253685716       23.5202914054
C                66.5113128532       -5.0799361756       23.6168240244
C                66.6329511358       -7.0833962653       22.0455971756
C                67.9213642695       -4.4935867882       23.7547823916
H                64.4497598561       -9.0525175958       24.7855411992
H                65.1063214059       -6.6437082919       25.1646505934
H                67.3476709547       -6.9941693043       24.0933667928
H                66.0363569116       -4.6422269289       22.7351959063
H                65.9214016738       -4.7426235502       24.4591392503
H                67.5073975503       -6.6024139882       21.6136393792
H                66.6835448747       -8.1642493358       21.9779120222
H                65.7824215365       -6.7528041919       21.4569573221
H                67.8444552188       -3.4214964173       23.9232052005
H                68.4601561035       -4.9380245300       24.5875268931
H                68.4985477796       -4.6338596171       22.8437350052
N                63.0059797902       -6.2798232870       23.9520362584
C                61.9349607831       -5.8335111105       23.1053943487
C                62.1599302333       -4.3579212593       22.7927546928
O                63.2476975209       -3.8305556633       22.9164024356
C                60.5643467191       -6.1408835819       23.7304602816
C                60.5901522785       -7.3809971531       24.5866835420
C                60.9252256944       -8.6053089548       23.7554110606
C                61.3981155677       -9.6659379109       24.7385106914
N                61.7806142229      -10.9882976791       24.1374419914
H                63.1763105609       -5.7492110789       24.7926350664
H                62.0423053570       -6.3751439066       22.1547980854
H                60.2481040498       -5.2962817476       24.3473612735
H                59.8374117467       -6.2741279347       22.9296024252
H                61.3175678080       -7.2582676571       25.3901375601
H                59.6115641207       -7.4968611129       25.0522330341
H                60.0438103030       -8.9275208376       23.2030005621
H                61.7099849845       -8.3803970317       23.0347935978
H                62.2589990861       -9.2795384685       25.2917757625
H                60.6058084302       -9.8518654588       25.4661715918
H                62.0360770394      -11.6445544699       24.8905606825
H                60.9703205352      -11.3727096590       23.6218116503
H                62.5449075086      -10.8734673604       23.4525314496
N                60.9966611519       -3.7210807186       22.4894054544
C                60.9726199777       -2.3651150252       22.0051321964
C                59.6936492173       -1.4907636136       22.2153372405
O                58.5426376444       -1.7548166513       21.9465776698
C                61.3759450243       -2.4368343844       20.5233528245
C                62.8697235247       -2.5357286625       20.2957283999
C                63.4151819695       -3.4431350274       19.3817389295
C                63.7154217622       -1.5918802656       20.8672318764
C                64.7564813870       -3.3944975502       19.0228451489
C                65.0647901028       -1.5692845533       20.5456559705
C                65.6177796803       -2.4541125248       19.6102107964
O                66.9638807871       -2.4074755487       19.3135263951
H                60.1961998635       -4.2813860608       22.2293436836
H                61.7806604378       -1.8560982161       22.5301068577
H                60.9026412882       -3.3173474919       20.0844694222
H                61.0032527187       -1.5620780318       19.9903432770
H                62.7775840778       -4.1685135472       18.9003263594
H                63.3408265873       -0.8334860892       21.5390727412
H                65.1499360051       -4.0796264061       18.2896854903
H                65.7090907055       -0.8435123154       21.0249616398
H                67.3859994963       -1.7265381594       19.8510255216
N                60.1174585556       -0.2357589085       22.5462066584
C                59.3115110103        0.9430489794       22.5271807324
C                59.5639426891        1.6889284424       21.2238601295
O                58.8938810641        2.6758762642       20.9150503125
H                61.0019502582       -0.1297427880       23.0223879798
H                58.2550065659        0.6523385173       22.5739065388
H                59.5066524032        1.6016067346       23.3771726112
N                60.4248005018        1.1018921782       20.3818666458
C                60.3521247669        1.2802152055       18.9227723724
C                58.9219871831        1.0729252127       18.3761019557
O                58.5019794288        1.8109425148       17.4996234444
C                61.3675726274        0.3517180550       18.2805797605
C                61.7737579090        0.7597118406       16.8805819949
C                63.1963900634        0.2753761516       16.6168841717
C                60.7978688609        0.1715813258       15.8720143292
H                60.9993485876        0.3492381757       20.7338752514
H                60.6039777410        2.3222977625       18.6971269313
H                62.2568056272        0.3633429117       18.9164505096
H                60.9902739979       -0.6711891119       18.2363106469
H                61.7567927089        1.8532856412       16.8018187651
H                63.5299860357        0.5801813043       15.6289154063
H                63.8916922875        0.6715225069       17.3512560970
H                63.2219004063       -0.8119361417       16.6697020955
H                61.2044058730        0.2778630819       14.8696826112
H                60.6336499294       -0.8749894108       16.0876521269
H                59.8519046112        0.7006526509       15.9197135397
N                58.1757637024        0.0897669169       18.9491027228
C                56.7010788465        0.0650178569       18.9667368868
C                56.0693359340        1.4234255599       19.1624739587
O                55.2015723794        1.8559783564       18.4051483998
C                56.0583962927       -0.7216512838       20.1437464593
C                54.5389341812       -0.7916190975       19.9800255000
C                53.9373605134       -1.2696800285       18.8140347306
C                53.6775812812       -0.4744138253       21.0169831325
C                52.5614182125       -1.3676247421       18.6833788787
C                52.2937133742       -0.5809180891       20.8813327658
C                51.7076767687       -1.0073913287       19.7093542956
H                58.5997349562       -0.4559405315       19.6893699305
H                56.3538058013       -0.3570779522       18.0204162649
H                56.4529883525       -1.7409812110       20.1354550516
H                56.3142434153       -0.2764825460       21.1017831180
H                54.5507905198       -1.5801680489       17.9820943503
H                54.0788980024       -0.1274860722       21.9585284796
H                52.1557024173       -1.6651428335       17.7273968833
H                51.6772275411       -0.3019063437       21.7238654660
H                50.6376607921       -1.0696200537       19.6034965117
N                58.8502067310       -6.2248837989       16.3689428961
C                59.7567709738       -5.6995856221       17.3950252336
C                59.5300259065       -6.2376636197       18.8192638360
O                60.4390143653       -6.2891827539       19.6380918559
C                59.6855317123       -4.1688480536       17.4208383026
C                60.4565781636       -3.5816900615       16.2295422472
O                61.6466514830       -3.8372568472       16.0697780374
N                59.7454799856       -2.7414060580       15.4374109677
H                57.9460136977       -5.7798489907       16.2800130087
H                60.7703419722       -5.9949401127       17.0995266697
H                58.6576849718       -3.8265672849       17.4476830621
H                60.2075387000       -3.8333261436       18.3191717515
H                60.1502847874       -2.4673251473       14.5573525945
H                58.7463249010       -2.6723717912       15.5939732486
N                58.2524080927       -6.5676872158       19.0442853781
C                57.7598254175       -7.2298779933       20.2222997903
C                57.4509793530       -8.6992400580       19.9642061519
O                58.2437428768       -9.5598517321       20.3339759451
C                56.5863644532       -6.4224949594       20.7340609908
C                57.2569179118       -5.2510832840       21.4332631988
C                55.7188219742       -7.2099308233       21.6710830704
C                56.3170996366       -4.1218953774       21.8216306403
H                57.5758148652       -6.4587643813       18.2988913571
H                58.5915770387       -7.2248986405       20.9384263659
H                56.0019335324       -6.0659401200       19.8837338334
H                57.7563483117       -5.6124880854       22.3334406339
H                58.0154179399       -4.8342965595       20.7645591915
H                54.9641588193       -6.5601490066       22.1087287898
H                55.1977595473       -8.0261385362       21.1865626815
H                56.3153672917       -7.6165668567       22.4858929283
H                56.8803781701       -3.2551891090       22.1515265704
H                55.6998401653       -3.8259367120       20.9754428099
H                55.6532414366       -4.4198582358       22.6294476399
N                60.1687523748      -11.0544482451       18.5866936664
C                61.1975779797      -11.5216799993       19.4651864439
C                60.5508156605      -12.5903300617       20.3444701239
O                61.1893548194      -13.5727845531       20.7248964835
C                61.6663312890      -10.2777146068       20.1932903721
C                61.5750224771       -9.2231201004       19.1224380469
C                60.2775340763       -9.6243616398       18.4137417914
H                62.0176018761      -11.9985035948       18.9098880084
H                60.9549240160      -10.0314362176       20.9834816421
H                62.6724613732      -10.3857719459       20.5865378185
H                61.5127444300       -8.2084635296       19.5067432127
H                62.4141445387       -9.2775291021       18.4292801740
H                59.4352441069       -9.1142924566       18.8570664594
H                60.3009194511       -9.3560361687       17.3517508937
N                59.2912192165      -12.3876785289       20.7967772712
C                58.8337079953      -13.2608908459       21.9150838485
C                58.9206194960      -14.6797742136       21.4735283994
O                59.6501122606      -15.4833910731       22.0393188765
C                57.4430013754      -12.9627057734       22.4544696786
C                57.4040661205      -11.5128544828       22.9342048666
C                55.9499619993      -11.1806592444       23.2519389380
C                58.3819980880      -11.2780953346       24.0748009261
H                58.7359210815      -11.5966395991       20.4949784762
H                59.5913803114      -13.1931200767       22.7050198972
H                56.7073215905      -13.1093103776       21.6649200908
H                57.2229035897      -13.6480739368       23.2713389110
H                57.6923017126      -10.8645596867       22.1004150611
H                55.8555000479      -10.1490101942       23.5857470988
H                55.3256893341      -11.3120533971       22.3731890397
H                55.5606519737      -11.8234761122       24.0391620454
H                58.5026412204      -10.2154678878       24.2482362378
H                57.9960044491      -11.7300952329       24.9890619006
H                59.3229918380      -11.7518470344       23.8505086642
N                62.2456793740      -16.2277801085       21.7778812362
C                62.8752138265      -16.4131176124       23.0731801526
C                62.1369502225      -17.4336007505       23.9222237467
O                62.8240924529      -18.0695515892       24.7061206140
C                63.1082490030      -15.1459178676       23.9100761156
C                64.0698118681      -14.2475458424       23.1388040485
C                64.6021881609      -13.0777845208       23.9531668189
C                65.1600781475      -11.9908596235       23.0260098445
N                66.6070103711      -12.1992934399       22.7077572830
H                61.2944733852      -15.8821991576       21.7489938195
H                63.8516740285      -16.8663589556       22.8634741534
H                62.1506737253      -14.6548795244       24.0761188455
H                63.5286989247      -15.4722061218       24.8604494002
H                64.8874555770      -14.8701929024       22.7735406903
H                63.5267958532      -13.8992554194       22.2565346201
H                63.7939540111      -12.6886730876       24.5619649268
H                65.3664620410      -13.4384263059       24.6408560557
H                64.6176010680      -12.0180411200       22.0770912665
H                65.0847132681      -10.9895403507       23.4526412912
H                66.9708961230      -11.4591278633       22.0914554228
H                67.1777708528      -12.2222004899       23.5668107659
H                66.7225356269      -13.1055549904       22.2267810605
N                74.6288183310       -4.6988924141       21.2582143107
C                73.6516179175       -3.7043172038       20.8734416851
C                73.6146895705       -2.5397780068       21.8510413629
O                72.5673720643       -1.9956699389       22.0933717161
C                72.2808779239       -4.3385180898       20.7552812128
C                71.8996302456       -5.1426173847       21.9991083396
C                71.1106293209       -6.3667345716       21.5482136021
C                70.8577722593       -7.3139895206       22.7083823137
N                69.8872760776       -8.3629750229       22.2850084917
H                74.3203360472       -5.5852522251       21.6261703380
H                73.9732915958       -3.2930261209       19.9044991190
H                71.5517145456       -3.5515012987       20.5736416006
H                72.3048741452       -4.9938092751       19.8839754178
H                72.7683534403       -5.4644226989       22.5750274546
H                71.2983773143       -4.5307059799       22.6716210202
H                70.1641858832       -6.0182414063       21.1310574757
H                71.6581059736       -6.8846329177       20.7592465251
H                71.7888088899       -7.7916139535       23.0163167783
H                70.4470634975       -6.7697135277       23.5591591611
H                69.7933298853       -9.0936499999       23.0063052414
H                68.9558600448       -7.9467855968       22.1109559183
H                70.2139943505       -8.8117397927       21.4149106499
N                60.5228410952       -4.5751293852       40.0564028288
C                59.1983745260       -3.8780785118       39.8473079225
C                58.1968328291       -3.8988662128       41.0382153168
O                57.1627620044       -4.5329555886       41.0920529077
C                58.6520055665       -4.3044547891       38.4550536496
C                59.7802438096       -4.0186555021       37.4978601634
C                60.7865521099       -4.9099358213       37.1884959301
C                60.2844703818       -2.7051264678       37.1521868472
N                61.8922487084       -4.2481044130       36.7115073341
C                61.6145987952       -2.8993536065       36.6729602885
C                59.7603326121       -1.3971175040       37.2001033448
C                62.4144790911       -1.8143429617       36.3076904631
C                60.5611881654       -0.3345843606       36.8262435290
C                61.8801364565       -0.5424547312       36.3985079622
H                60.9956128981       -4.4739472475       39.1628201294
H                59.4851183867       -2.8229534671       39.7156182177
H                58.3962845767       -5.3626491777       38.4564502971
H                57.7651570065       -3.7194543709       38.2238769282
H                60.7865675249       -5.9804584856       37.2854085792
H                62.7113022137       -4.6882524224       36.3296641626
H                58.7470073720       -1.2337942292       37.5321212508
H                63.4256430535       -1.9723684567       35.9611238590
H                60.1766002162        0.6724967794       36.8563140259
H                62.4963277189        0.2999051747       36.1232533853
H                64.5006690019        2.4716507490       22.0452973670
H                56.3541816961        2.0018679763       19.9268477303
H                59.2362081668       -6.1486606600       15.5595030128
H                56.6061257226       -8.9578108398       19.4958435851
H                60.4124130640      -11.2026145657       17.7330683329
H                58.3750698596      -14.9962368648       20.6974955492
H                62.7204395175      -15.6348001735       21.2952037013
H                61.1491867271      -17.5498003810       23.8182000807
H                75.1299690985       -4.9197155866       20.5440119341
H                74.4575826820       -2.2284547060       22.2899137875
H                60.9714052510       -4.1734855180       40.7253366087
H                58.3814780668       -3.3543293581       41.8563752951
