 131 
 
N                51.2490000000       42.1570000000       79.6500000000
C                51.3840000000       41.4310000000       78.3670000000
C                51.8410000000       42.3440000000       77.2400000000
O                51.8550000000       43.5600000000       77.4280000000
C                49.9710000000       40.9410000000       78.1130000000
C                49.1220000000       42.0520000000       78.6670000000
C                49.8950000000       42.7350000000       79.7800000000
H                52.0720000000       40.5910000000       78.4620000000
H                49.8020000000       40.8060000000       77.0450000000
H                49.7930000000       40.0040000000       78.6400000000
H                48.9030000000       42.7630000000       77.8710000000
H                48.1950000000       41.6310000000       79.0570000000
H                49.9170000000       43.8150000000       79.6320000000
H                49.4640000000       42.5010000000       80.7530000000
N                52.2880000000       41.8160000000       76.1070000000
C                52.9780000000       42.6870000000       75.1490000000
C                52.4510000000       42.7160000000       73.7150000000
O                52.7130000000       41.8000000000       72.9350000000
C                54.4760000000       42.3650000000       75.1350000000
C                55.3750000000       43.5900000000       75.1050000000
C                55.4890000000       44.1950000000       73.7190000000
O                55.6500000000       45.4290000000       73.6180000000
O                55.4160000000       43.4350000000       72.7300000000
H                52.1940000000       40.8380000000       75.8340000000
H                52.7410000000       43.6890000000       75.5060000000
H                54.7190000000       41.7980000000       76.0340000000
H                54.6970000000       41.7710000000       74.2480000000
H                54.9650000000       44.3490000000       75.7720000000
H                56.3750000000       43.3060000000       75.4330000000
N                51.7600000000       43.7950000000       73.3500000000
C                51.2950000000       44.8300000000       74.3140000000
C                49.9980000000       45.4660000000       73.8020000000
O                49.7030000000       45.4530000000       72.5950000000
C                52.3530000000       45.9160000000       74.5410000000
O                49.2230000000       46.0050000000       74.5920000000
H                51.4950000000       43.9980000000       72.3860000000
H                51.1180000000       44.3530000000       75.2780000000
H                51.9650000000       46.6460000000       75.2510000000
H                53.2560000000       45.4540000000       74.9390000000
H                52.5720000000       46.4020000000       73.5900000000
N                46.6860000000       42.0890000000       68.6830000000
C                48.0320000000       42.6690000000       68.6880000000
C                48.7700000000       42.4690000000       70.0380000000
O                49.5760000000       43.3140000000       70.4510000000
C                47.9510000000       44.1570000000       68.3240000000
O                47.1140000000       44.3590000000       67.1930000000
H                45.9870000000       42.8370000000       68.5020000000
H                46.6220000000       41.3670000000       67.9370000000
H                46.4940000000       41.6510000000       69.6060000000
H                48.6360000000       42.1550000000       67.9400000000
H                47.5410000000       44.7070000000       69.1710000000
H                48.9520000000       44.5200000000       68.0930000000
H                46.2080000000       44.0370000000       67.3840000000
N                48.4810000000       41.3420000000       70.7030000000
C                49.0890000000       40.9390000000       71.9930000000
C                49.0250000000       39.3870000000       72.0300000000
O                48.5550000000       38.7650000000       71.0590000000
C                48.3390000000       41.5880000000       73.2110000000
O                48.1360000000       42.9880000000       72.9740000000
C                49.0960000000       41.4420000000       74.5530000000
H                47.8050000000       40.6560000000       70.3670000000
H                50.1260000000       41.2700000000       72.0480000000
H                47.3900000000       41.0600000000       73.3090000000
H                47.6680000000       43.3920000000       73.7340000000
H                48.5260000000       41.9110000000       75.3550000000
H                49.2370000000       40.3870000000       74.7890000000
H                50.0720000000       41.9230000000       74.4850000000
N                49.5180000000       38.7650000000       73.1090000000
C                49.1450000000       37.3810000000       73.4420000000
C                47.6190000000       37.2580000000       73.6010000000
O                47.0820000000       36.1620000000       73.4240000000
C                49.8540000000       36.9130000000       74.7080000000
H                50.1720000000       39.1860000000       73.7690000000
H                49.4710000000       36.7230000000       72.6360000000
H                49.5560000000       35.8870000000       74.9230000000
H                50.9310000000       36.9610000000       74.5500000000
H                49.5700000000       37.5640000000       75.5350000000
N                46.9710000000       38.3880000000       73.9570000000
C                45.4960000000       38.6190000000       74.0660000000
C                45.0430000000       38.2340000000       75.4900000000
O                43.8700000000       37.9140000000       75.7400000000
C                44.6940000000       37.8870000000       72.9550000000
C                43.2870000000       38.4500000000       72.7480000000
O                42.7440000000       39.1640000000       73.5950000000
N                42.6840000000       38.1080000000       71.6150000000
H                47.4740000000       39.2420000000       74.1990000000
H                45.2680000000       39.6720000000       73.9010000000
H                45.2330000000       37.9800000000       72.0120000000
H                44.5960000000       36.8360000000       73.2260000000
H                41.7440000000       38.4490000000       71.4140000000
H                43.1610000000       37.5040000000       70.9460000000
N                45.9920000000       38.3260000000       76.4230000000
C                46.0130000000       37.4700000000       77.5950000000
C                46.9540000000       38.0320000000       78.6450000000
O                48.1490000000       38.2180000000       78.3780000000
C                46.5150000000       36.0730000000       77.2180000000
C                45.4760000000       35.1410000000       76.6300000000
C                46.0890000000       33.7630000000       76.3960000000
C                45.1880000000       32.8720000000       75.5590000000
N                43.7880000000       32.8490000000       76.0720000000
H                46.7640000000       38.9920000000       76.3890000000
H                45.0020000000       37.4400000000       78.0020000000
H                47.3080000000       36.1820000000       76.4780000000
H                46.9070000000       35.5960000000       78.1160000000
H                44.6390000000       35.0390000000       77.3210000000
H                45.1260000000       35.5350000000       75.6760000000
H                47.0370000000       33.8770000000       75.8710000000
H                46.2520000000       33.2750000000       77.3570000000
H                45.1680000000       33.2440000000       74.5340000000
H                45.5740000000       31.8530000000       75.5790000000
H                43.2010000000       32.2310000000       75.4760000000
H                43.7730000000       32.4910000000       77.0480000000
H                43.3880000000       33.8090000000       76.0590000000
N                57.4720285399       45.7457547515       77.6540000000
C                57.4716008422       44.6190139574       78.5320000000
C                58.0015711097       43.4689493872       77.7310000000
O                57.2537679528       42.5797163253       77.3390000000
C                56.0014421544       44.4886244150       78.9590000000
C                55.2268423765       45.0189782440       77.8130000000
C                56.1899198336       45.7850773314       76.9190000000
H                58.0231353594       44.7462997632       79.4640000000
H                55.7590081058       43.4427163253       79.1440000000
H                55.8217307227       45.0773550846       79.8580000000
H                54.7818231386       44.1881823137       77.2650000000
H                54.4458887695       45.6823269183       78.1840000000
H                56.2873421914       45.2958178049       75.9500000000
H                55.8551354090       46.8132136983       76.7850000000
H                57.9990614566       46.3912830589       77.9938963210
H                58.9756631154       43.4202082050       77.5101628166
H                51.8002824697       41.7924776264       80.2609100407
H                46.6099369722       38.2539218101       79.5573438733
