 278 
 
N                14.3359332966       34.8184733538       79.7919891035
C                15.1274037743       33.9568000697       80.6506532410
C                16.5216037417       33.8105410459       80.0290440102
O                16.6667897114       33.3687367594       78.8957741988
C                14.5052529546       32.5523924760       80.7754000070
C                15.4046361645       31.6738111062       81.6284723130
C                13.1068915710       32.6024264511       81.3746988856
H                14.2160825538       34.5175985997       78.8273471764
H                15.2011910254       34.4418328413       81.6276721913
H                14.4505334149       32.1365602989       79.7645290999
H                14.9618354176       30.6892807919       81.7404131849
H                16.3839122961       31.5725306361       81.1728283191
H                15.5259540320       32.1144609233       82.6167515260
H                12.6836898060       31.6033778065       81.3977095845
H                13.1371459697       32.9919633274       82.3901148218
H                12.4588125704       33.2416746249       80.7794126326
N                22.3540561958       25.9148938874       78.5118773251
C                21.5284299162       27.0760354410       78.2172180452
C                20.2207603450       26.5916858250       77.5615361008
O                20.0450393608       25.4299753007       77.2351963691
C                22.3861558902       27.9399327225       77.2713265881
C                23.6107222665       27.0600050618       76.9574235935
C                23.1584597541       25.6466806769       77.3425147017
H                21.2644724520       27.5581323143       79.1599564769
H                21.8309030405       28.1534319902       76.3578860694
H                22.6613916920       28.8842412553       77.7352566119
H                23.8978665777       27.1159053026       75.9105296922
H                24.4642357624       27.3307555352       77.5789463579
H                22.5247323348       25.2121932742       76.5646073431
H                23.9838083826       24.9738733626       77.5512945766
N                19.2640080977       27.5426692719       77.4467462077
C                17.9517036838       27.2176397269       76.9347921130
C                17.8676999410       27.4338835504       75.4316723111
O                18.5737556599       28.2208145595       74.8123389432
C                16.8617172220       28.0431171335       77.6225799672
C                16.5243562335       27.5627438848       79.0384512251
C                15.8350143375       28.6998492793       79.7833157954
C                15.6182961485       26.3351225793       78.9983882082
H                19.5273981788       28.5155742146       77.4491549929
H                17.8113066362       26.1488339506       77.1295722773
H                17.1892610386       29.0849481849       77.6433599122
H                15.9582424255       28.0117581913       77.0141635687
H                17.4554970147       27.3023827620       79.5532201563
H                15.6306710260       28.4103150142       80.8102227618
H                16.4687775285       29.5815495673       79.7995794147
H                14.9031264033       28.9645315901       79.2918392886
H                15.4399978930       25.9535864301       80.0005605783
H                14.6634202712       26.6015608117       78.5527850905
H                16.0579954011       25.5302493879       78.4124356911
N                16.8852000499       26.7238957979       74.8669554726
C                16.7361330827       26.6872785554       73.4305205014
C                16.2674841473       28.0642128457       72.9507717959
O                16.5686853435       28.5350706525       71.8655859974
C                15.6764184816       25.6513631333       73.0313372374
C                15.7145239252       24.4014711725       73.9827481645
O                15.2333895154       24.6089951108       75.1221743684
O                16.1759279648       23.3500613249       73.5259655778
H                16.3979667519       25.9832605626       75.3764495872
H                17.6995577449       26.4506151087       72.9598166816
H                14.6910182580       26.1016645425       73.1475716796
H                15.8595532301       25.3232873641       72.0109253661
N                15.3442842157       28.5885127792       73.7696491839
C                14.6467230976       29.8279079232       73.5280586792
C                14.8516667937       30.7565111776       74.7316196563
O                15.1989679809       30.3147732357       75.8053073307
C                13.1367346928       29.5323655230       73.4084959173
C                12.8016699545       28.3966931509       72.4385518907
C                13.1340102596       28.7499759844       70.9853638041
C                12.4612922229       27.8222836480       69.9786817858
N                13.0315020981       26.4445985634       70.0528987714
H                15.3017228112       28.2387768530       74.7174799855
H                15.0709474184       30.2622102021       72.6195499142
H                12.7896152388       29.2603323007       74.4054236112
H                12.6236886676       30.4445626448       73.1100029570
H                13.3522628630       27.5142558737       72.7613470220
H                11.7347973879       28.1953013195       72.5293422916
H                12.7829445874       29.7604236532       70.7820475560
H                14.2160125409       28.7446888115       70.8441538240
H                11.3897498648       27.7678222213       70.1751519264
H                12.6178373012       28.1993644287       68.9682404014
H                12.5815795791       25.8206016229       69.3686632614
H                14.0419921004       26.4770084593       69.8499368187
H                12.9163977467       26.0537481487       70.9969821403
N                14.4783331241       32.0492419235       74.5181740684
C                14.8337196933       33.0778307740       75.4700168369
C                13.6350527559       33.9211577626       75.9115895428
O                13.6337254150       34.5260954055       76.9787941995
C                15.9479225649       33.9647304091       74.8537784681
O                16.9803018991       33.0858770887       74.4582282699
C                16.4289471561       35.0354982952       75.8152528700
H                14.5243618657       32.3512495475       73.5530687868
H                15.2485541167       32.5840612142       76.3570715168
H                15.5445332869       34.4584242206       73.9512690701
H                17.8370333568       33.5131507888       74.5699564765
H                17.2824696851       35.5731922591       75.4061188311
H                15.6347384476       35.7549245007       75.9894180630
H                16.7144963937       34.5916160286       76.7677715579
N                12.6359337453       33.9898107796       75.0265459819
C                11.4312101677       34.7703826282       75.2373919570
C                10.2540964014       33.7982624342       75.3549826888
O                10.1373281962       32.8889442362       74.5419899570
C                11.2278729283       35.7826063576       74.0822789525
C                11.6836731872       35.2515840482       72.7218136708
C                11.2425511991       36.1705501017       71.5769074985
C                11.6941635632       35.6241399862       70.2174543162
N                11.0457540378       36.3572362066       69.0994273726
H                12.6002555433       33.3088487543       74.2802851565
H                11.5405049059       35.3132974862       76.1786896195
H                10.1705436638       36.0515420757       74.0549414146
H                11.7818044966       36.6910886155       74.3235527337
H                12.7713445003       35.1799203288       72.7157415967
H                11.2634330386       34.2548681143       72.5823227564
H                10.1587697901       36.2827253731       71.6044689439
H                11.6638160900       37.1645504191       71.7277739735
H                12.7736148357       35.7475967218       70.1280121515
H                11.4537726109       34.5634672120       70.1339008276
H                11.4315722694       36.0894528803       68.1868834008
H                10.0269531543       36.2412745433       69.1056344060
H                11.1756552673       37.4142608739       69.1903667432
N                 9.4071880704       34.0290117690       76.3537098457
C                 8.2742635691       33.2020136677       76.7102666179
C                 7.0575980634       34.0845196069       77.0527002921
O                 7.1975619113       35.1091137905       77.7193588245
C                 8.5332696843       32.4172346336       78.0232670321
C                 9.7206908403       31.5030619978       77.9721579480
C                11.0118794337       32.0220270345       77.9924772448
C                 9.5439705720       30.1265426367       77.9398594917
C                12.1058790623       31.1768010953       77.9556933083
C                10.6392961180       29.2824584673       77.9142476021
C                11.9214526863       29.8049253610       77.9165980982
H                 9.6222661129       34.7714372738       77.0147732996
H                 8.0536967514       32.5208737942       75.8861920393
H                 8.6823583539       33.1533418443       78.8180316732
H                 7.6317422823       31.8474241662       78.2526494549
H                11.1672739029       33.0887077302       78.0689941977
H                 8.5448043368       29.7183394642       77.9519343379
H                13.1049537408       31.5881995332       77.9592665946
H                10.4944796231       28.2140224294       77.9045631122
H                12.7836128521       29.1557015879       77.8985387759
N                 8.6146300751       24.4242848429       84.4146359206
C                 8.5153833659       24.3954888991       82.9698697061
C                 9.8991571568       24.6291895724       82.3456002372
O                10.2598434101       24.0451657646       81.3275756329
C                 7.4957847349       25.4066750639       82.4204822576
C                 6.1341797346       25.2571829417       83.1055706343
C                 7.3519782631       25.1841501925       80.9164517805
C                 5.1297172252       26.2986796765       82.6247373894
H                 8.0800987425       25.1088254045       84.9330264751
H                 8.2058004069       23.3834297406       82.6709248893
H                 7.8854019778       26.4118385337       82.6154052024
H                 5.7394062155       24.2583966430       82.9083534408
H                 6.2446089163       25.3582891467       84.1825632179
H                 6.8460232490       26.0266825013       80.4566086359
H                 8.3254103043       25.0699067851       80.4505852056
H                 6.7755185464       24.2820218360       80.7260252169
H                 4.2211679587       26.2388464479       83.2194059113
H                 5.5394472567       27.3021466780       82.7175039537
H                 4.8606405796       26.1348375715       81.5856023639
N                10.6753858503       25.5175105736       82.9598266574
C                12.0127754778       25.7851391170       82.4752703502
C                12.9110714524       24.5589524733       82.6555504401
O                13.5917032304       24.1277992016       81.7301992917
C                12.5351862601       27.0475340590       83.1673039559
C                11.8916578789       28.2631333641       82.4952700984
C                14.0533482218       27.1322211441       83.1239462530
C                11.9142983019       29.4792198253       83.4026835379
H                10.3326490884       26.0445944612       83.7552504322
H                11.9711013964       25.9486572593       81.3896870550
H                12.2117290149       27.0073279919       84.2117961730
H                12.4170743625       28.4842859450       81.5647001232
H                10.8526371187       28.0346474667       82.2547258315
H                14.3901569141       28.1052653388       83.4676185065
H                14.5010148903       26.3759725739       83.7583770626
H                14.4069752681       26.9813690657       82.1072941075
H                11.5057524046       30.3378332794       82.8834245038
H                11.3040117395       29.3032108299       84.2852192492
H                12.9258549640       29.7196272160       83.7185959534
N                12.0363263359       21.5670768633       82.8710297183
C                11.5230453803       20.5816100037       81.9422087318
C                12.3032809054       20.5725663840       80.6166745689
O                12.5749557750       19.5450499918       80.0178109327
C                10.0609011083       20.9364308856       81.6260369962
O                 9.6787731890       20.3214783163       80.4143634824
H                11.3426353052       22.0943117050       83.3952008329
H                11.5968315668       19.5671774379       82.3543791501
H                 9.4221069421       20.6131935691       82.4576973324
H                10.0000779356       22.0256303666       81.5200024742
H                 8.7503346507       20.5237581524       80.2426040266
N                12.5805955260       21.7981947114       80.1568465749
C                13.2452639183       22.0078917547       78.8983267665
C                14.7420920470       21.6763015500       78.9209117407
O                15.4151759981       21.7281391146       77.9009197982
C                13.0685732072       23.4504663680       78.4311799389
C                11.6272487059       23.7665159525       78.0352269085
C                11.5148220761       25.2399502722       77.5976568287
N                10.6857841733       25.4248255079       76.4224786235
C                11.0786715279       25.2610978284       75.1594626414
N                12.3547690440       25.1142278517       74.8130701298
N                10.1673945032       25.3905253699       74.1919365551
H                12.4238918618       22.5904190592       80.7653820341
H                12.8138797841       21.3056428996       78.1715032526
H                13.3902037818       24.1010259184       79.2462770879
H                13.7460769893       23.5992950901       77.5865948897
H                11.3405678555       23.1069529591       77.2153875786
H                10.9699537146       23.5633873764       78.8797067939
H                11.0784009187       25.8319344050       78.4016748091
H                12.5123100794       25.6322982715       77.3933284185
H                 9.6896471622       25.4399483079       76.5978168644
H                13.1032102843       24.9323966481       75.4704353300
H                12.5839568366       24.8435435131       73.8708214318
H                 9.1862189011       25.4547703739       74.4149300096
H                10.4032329017       25.1543393585       73.2411057796
N                15.2632959248       21.3828211176       80.1180424013
C                16.6349300670       20.9741272830       80.3071268418
C                16.7201529984       19.4572943064       80.5475985448
O                15.7643847894       18.7430258552       80.7898611080
C                17.2631150716       21.7651880280       81.4585759521
C                17.2319375635       23.2629359718       81.1764119941
S                18.2128969818       24.1577328346       82.4466128240
C                17.0900633387       25.5181597066       82.8497576740
H                14.6686461474       21.2243945846       80.9249472414
H                17.1577254182       21.1905239892       79.3658597724
H                16.6984264476       21.5533429338       82.3682363304
H                18.2941083996       21.4433591121       81.6099288861
H                17.6679254517       23.4845721985       80.2017129587
H                16.2101238196       23.6364148323       81.2073368277
H                17.4350399650       25.9542051840       83.7809902250
H                17.1194085109       26.2670855365       82.0636563181
H                16.0933964384       25.1071858234       82.9598170366
N                19.0509691098       32.4176927543       85.3726353583
C                19.1081937415       31.1943962575       86.1413516662
C                20.5548056166       30.7638793732       86.3497649796
O                21.4040722641       30.8830806140       85.4747636091
C                18.2313005531       30.0874262858       85.5414952572
C                18.7071415802       29.6151830149       84.2107052121
C                18.4292262087       30.3737473074       83.0843230707
C                19.4072169712       28.4238152780       84.0774372928
C                18.8114806901       29.9332032756       81.8357305128
C                19.8064916237       27.9771635729       82.8346379603
C                19.4788590718       28.7219707693       81.7076230992
O                19.7991614582       28.2382454625       80.4766540354
H                19.5847141326       32.5216720854       84.5191402896
H                18.6887709951       31.4405279283       87.1238294606
H                18.2134451817       29.2618694101       86.2515823661
H                17.2242885359       30.4973252457       85.4527361616
H                17.8923452214       31.3046307734       83.1805481513
H                19.6189797229       27.8323402662       84.9557474170
H                18.5695134855       30.5204646136       80.9607437350
H                20.3384881989       27.0481120603       82.7063126576
H                19.3625150107       28.7867186129       79.8080836757
N                 8.2697926542       31.5937608042       72.8628393319
C                 7.6784425726       30.3629653429       73.3769561477
C                 6.2814696177       30.6000928117       73.9481957992
O                 6.1026772080       31.3570367952       74.8944108560
C                 8.5167755491       29.7089981508       74.4888991400
C                 8.1166583810       28.2412864369       74.6040699658
C                10.0119952811       29.7882722896       74.2134408799
H                 9.0532862986       31.9767917444       73.3929587700
H                 7.5997950807       29.6762783120       72.5258326940
H                 8.3005022650       30.2206843802       75.4298077567
H                 8.6510078846       27.7972347682       75.4388865687
H                 7.0528636190       28.1220177681       74.7853423210
H                 8.3749242418       27.7162678335       73.6889404070
H                10.5235567086       29.1156457936       74.8944517530
H                10.2086977124       29.4952522725       73.1892340886
H                10.4058461245       30.7809986616       74.3975833709
H                13.5047346444       34.8960943768       80.1282684181
H                17.3320234710       34.0778786262       80.5503409320
H                22.5112735003       25.8749009976       79.3971362070
H                 6.1462721316       33.8257545583       76.7325039530
H                 8.3485714161       23.6325651604       84.7498861768
H                12.9507380043       24.0938768995       83.5399323007
H                12.5542929232       21.1605225600       83.4845639170
H                17.6055523633       18.9940100758       80.5097080923
H                18.2035814236       32.5674938192       85.1090186853
H                20.8379677075       30.3688950538       87.2237252863
H                 8.5812359532       31.4525245694       72.0303398440
H                 5.4922369529       30.1333633828       73.5491025258
