 529 
 
N                44.6170000000       44.3050000000       90.8820000000
C                43.8490000000       43.2930000000       91.5610000000
C                42.4780000000       43.1800000000       90.9190000000
O                41.8790000000       44.1790000000       90.4950000000
C                43.7090000000       43.6790000000       93.0230000000
C                44.9990000000       44.0430000000       93.7360000000
C                44.7900000000       44.3410000000       95.2040000000
C                45.9590000000       42.8900000000       93.6020000000
H                44.4120000000       45.2480000000       91.2120000000
H                44.3340000000       42.3190000000       91.4940000000
H                43.0490000000       44.5440000000       93.0850000000
H                43.2700000000       42.8360000000       93.5570000000
H                45.4000000000       44.9490000000       93.2810000000
H                45.7500000000       44.5940000000       95.6550000000
H                44.1010000000       45.1800000000       95.3010000000
H                44.3720000000       43.4590000000       95.6890000000
H                46.8890000000       43.1420000000       94.1110000000
H                45.5150000000       42.0040000000       94.0560000000
H                46.1510000000       42.7090000000       92.5440000000
N                37.4570000000       34.0660000000       91.3780000000
C                38.5120000000       33.9270000000       92.3710000000
C                39.3260000000       35.2120000000       92.4600000000
O                39.5620000000       35.8550000000       91.4430000000
C                39.4200000000       32.7720000000       91.9730000000
C                40.0780000000       32.2010000000       93.1130000000
C                41.1720000000       32.6780000000       93.7610000000
C                39.6810000000       31.0340000000       93.7900000000
N                41.4990000000       31.8660000000       94.8070000000
C                40.5960000000       30.8380000000       94.8510000000
C                38.6410000000       30.1090000000       93.5990000000
C                40.5070000000       29.7530000000       95.7240000000
C                38.5450000000       29.0330000000       94.4640000000
C                39.4810000000       28.8620000000       95.5230000000
H                37.7820000000       33.8870000000       90.4280000000
H                38.0940000000       33.7260000000       93.3580000000
H                38.8240000000       31.9940000000       91.4950000000
H                40.1820000000       33.1340000000       91.2830000000
H                41.7080000000       33.5750000000       93.4870000000
H                42.2820000000       32.0010000000       95.4470000000
H                37.9320000000       30.2350000000       92.7940000000
H                41.2170000000       29.6190000000       96.5270000000
H                37.7500000000       28.3140000000       94.3340000000
H                39.3820000000       28.0130000000       96.1830000000
N                39.7660000000       35.5730000000       93.6690000000
C                40.5690000000       36.7820000000       93.8250000000
C                41.9700000000       36.5850000000       93.3560000000
O                42.5880000000       35.5730000000       93.6630000000
C                40.5620000000       37.0460000000       95.3430000000
C                40.2910000000       35.7190000000       95.9480000000
C                39.3560000000       35.0330000000       94.9720000000
H                40.0970000000       37.6080000000       93.2930000000
H                41.5310000000       37.4310000000       95.6600000000
H                39.7770000000       37.7590000000       95.5940000000
H                41.2210000000       35.1610000000       96.0550000000
H                39.8170000000       35.8430000000       96.9210000000
H                39.4900000000       33.9520000000       95.0020000000
H                38.3180000000       35.2860000000       95.1870000000
N                42.4710000000       37.5740000000       92.6410000000
C                43.7380000000       37.4360000000       91.9620000000
C                44.2800000000       38.8070000000       91.5910000000
O                43.5690000000       39.8240000000       91.6830000000
C                43.5940000000       36.5460000000       90.7340000000
H                42.0220000000       38.4810000000       92.5140000000
H                44.4580000000       36.9870000000       92.6460000000
H                44.5630000000       36.4600000000       90.2420000000
H                43.2480000000       35.5610000000       91.0480000000
H                42.8700000000       36.9950000000       90.0530000000
N                45.5650000000       38.8200000000       91.2380000000
C                46.2030000000       39.9870000000       90.6390000000
C                46.7760000000       39.5940000000       89.2850000000
O                46.9820000000       38.4060000000       89.0110000000
C                47.3490000000       40.4700000000       91.5090000000
C                48.5240000000       39.5230000000       91.4320000000
C                49.6670000000       39.9250000000       92.3020000000
N                50.3030000000       38.7280000000       92.7770000000
C                51.2920000000       38.7030000000       93.6360000000
N                51.8340000000       39.8180000000       94.0560000000
N                51.7860000000       37.5420000000       94.0310000000
H                46.1950000000       38.0270000000       91.3570000000
H                45.4720000000       40.7870000000       90.5160000000
H                47.6740000000       41.4530000000       91.1670000000
H                47.0180000000       40.5270000000       92.5460000000
H                48.1990000000       38.5310000000       91.7460000000
H                48.8830000000       39.4900000000       90.4040000000
H                50.3860000000       40.5120000000       91.7310000000
H                49.3070000000       40.5030000000       93.1530000000
H                49.9610000000       37.8350000000       92.4210000000
H                51.4870000000       40.7140000000       93.7140000000
H                52.6040000000       39.7910000000       94.7250000000
H                51.3970000000       36.6720000000       93.6670000000
H                52.5560000000       37.5160000000       94.7000000000
N                47.8490000000       35.7170000000       88.9370000000
C                48.2650000000       34.9740000000       90.0800000000
C                47.1310000000       34.9250000000       91.0460000000
O                46.7090000000       35.9630000000       91.5890000000
C                49.4200000000       35.6620000000       90.7300000000
C                49.8610000000       35.0260000000       92.0230000000
C                50.8110000000       34.0210000000       92.0080000000
C                49.3350000000       35.4500000000       93.2480000000
C                51.2460000000       33.4560000000       93.1750000000
C                49.7810000000       34.9060000000       94.4210000000
C                50.7450000000       33.9060000000       94.3860000000
H                47.5500000000       36.6710000000       89.1400000000
H                48.5400000000       33.9600000000       89.7890000000
H                50.2680000000       35.6440000000       90.0450000000
H                49.1370000000       36.6920000000       90.9460000000
H                51.2130000000       33.6790000000       91.0660000000
H                48.5710000000       36.2130000000       93.2680000000
H                51.9780000000       32.6620000000       93.1530000000
H                49.3870000000       35.2510000000       95.3660000000
H                51.1060000000       33.4770000000       95.3090000000
N                46.6840000000       33.7040000000       91.2930000000
C                45.5500000000       33.4690000000       92.1520000000
C                45.9470000000       33.4100000000       93.6110000000
O                46.7760000000       32.5860000000       94.0000000000
C                44.9070000000       32.1540000000       91.7770000000
C                44.2600000000       32.1740000000       90.4460000000
C                42.9660000000       32.6540000000       90.3080000000
C                44.9340000000       31.7240000000       89.3390000000
C                42.3420000000       32.6710000000       89.0800000000
C                44.3220000000       31.7490000000       88.1060000000
C                43.0230000000       32.2210000000       87.9730000000
H                47.0930000000       32.8530000000       90.9070000000
H                44.8500000000       34.2950000000       92.0280000000
H                45.6730000000       31.3790000000       91.7650000000
H                44.1430000000       31.9120000000       92.5160000000
H                42.4390000000       33.0200000000       91.1770000000
H                45.9430000000       31.3510000000       89.4350000000
H                41.3290000000       33.0340000000       88.9870000000
H                44.8570000000       31.3990000000       87.2350000000
H                42.5490000000       32.2350000000       87.0030000000
N                45.3010000000       34.2350000000       94.4250000000
C                45.6050000000       34.2800000000       95.8340000000
C                45.0970000000       33.0710000000       96.5740000000
O                44.1370000000       32.4140000000       96.1510000000
C                44.9930000000       35.4880000000       96.4510000000
C                45.6230000000       36.7610000000       96.0310000000
C                46.8160000000       37.1840000000       96.6100000000
C                44.9980000000       37.5780000000       95.0900000000
C                47.3830000000       38.3900000000       96.2370000000
C                45.5600000000       38.7840000000       94.7070000000
C                46.7510000000       39.1990000000       95.2890000000
H                44.5660000000       34.8790000000       94.1330000000
H                46.6900000000       34.3100000000       95.9370000000
H                43.9410000000       35.5300000000       96.1700000000
H                45.0860000000       35.4130000000       97.5340000000
H                47.3010000000       36.5690000000       97.3530000000
H                44.0610000000       37.2650000000       94.6530000000
H                48.3160000000       38.7070000000       96.6800000000
H                45.0760000000       39.3970000000       93.9610000000
H                47.1880000000       40.1460000000       95.0090000000
N                45.7650000000       32.7750000000       97.6860000000
C                45.4210000000       31.6510000000       98.5500000000
C                45.9510000000       30.3380000000       98.0000000000
O                46.6800000000       29.6290000000       98.6630000000
H                46.5670000000       33.3070000000       98.0230000000
H                45.8470000000       31.8100000000       99.5400000000
H                44.3370000000       31.5780000000       98.6380000000
N                45.5870000000       30.0070000000       96.7820000000
C                46.1010000000       28.8130000000       96.1530000000
C                47.4660000000       29.0340000000       95.4570000000
O                48.2220000000       28.0600000000       95.1690000000
C                45.0930000000       28.3820000000       95.1170000000
O                44.8650000000       29.4870000000       94.2420000000
C                43.7860000000       28.0180000000       95.7820000000
H                44.9390000000       30.5430000000       96.2050000000
H                46.2410000000       28.0260000000       96.8940000000
H                45.4570000000       27.5150000000       94.5660000000
H                44.2130000000       29.2400000000       93.5540000000
H                43.0600000000       27.7070000000       95.0310000000
H                43.9410000000       27.2000000000       96.4850000000
H                43.3900000000       28.8780000000       96.3220000000
N                47.7690000000       30.3120000000       95.1820000000
C                48.9940000000       30.6880000000       94.4980000000
C                49.1810000000       29.9340000000       93.1860000000
O                50.2920000000       29.5440000000       92.8460000000
C                50.2170000000       30.4600000000       95.3820000000
C                50.2080000000       31.2250000000       96.6600000000
N                50.8530000000       30.7660000000       97.7880000000
C                49.6390000000       32.4040000000       96.9960000000
C                50.6790000000       31.6320000000       98.7690000000
N                49.9530000000       32.6400000000       98.3120000000
H                47.1760000000       31.1050000000       95.4260000000
H                48.9060000000       31.7500000000       94.2680000000
H                50.2710000000       29.4010000000       95.6330000000
H                51.1070000000       30.7570000000       94.8270000000
H                49.0490000000       33.0400000000       96.3520000000
H                51.0640000000       31.5350000000       99.7740000000
H                49.6720000000       33.4600000000       98.8500000000
N                48.0950000000       29.7270000000       92.4570000000
C                48.1890000000       29.1520000000       91.1350000000
C                48.4660000000       30.3410000000       90.2140000000
O                48.3530000000       31.4980000000       90.6540000000
C                46.8830000000       28.4560000000       90.7590000000
C                46.3100000000       27.4590000000       91.7740000000
C                44.7830000000       27.2570000000       91.6030000000
O                43.9790000000       28.2070000000       91.8290000000
O                44.3570000000       26.1370000000       91.2340000000
H                47.1450000000       29.9470000000       92.7570000000
H                48.9650000000       28.3900000000       91.0550000000
H                46.1250000000       29.2240000000       90.6050000000
H                47.0490000000       27.9060000000       89.8330000000
H                46.7970000000       26.4930000000       91.6400000000
H                46.4920000000       27.8310000000       92.7820000000
N                35.8030000000       26.8360000000       99.5100000000
C                36.7000000000       26.2020000000       98.5520000000
C                38.1290000000       26.2060000000       99.0840000000
O                38.5110000000       27.0940000000       99.8470000000
C                36.6380000000       26.9180000000       97.2020000000
C                35.2690000000       26.8800000000       96.5410000000
C                34.8650000000       25.4570000000       96.1910000000
N                35.7950000000       24.8400000000       95.2500000000
C                35.7600000000       25.0260000000       93.9350000000
N                34.8380000000       25.8140000000       93.3990000000
N                36.6460000000       24.4230000000       93.1540000000
H                35.8600000000       27.8540000000       99.5230000000
H                36.4010000000       25.1650000000       98.4000000000
H                36.9060000000       27.9640000000       97.3490000000
H                37.3470000000       26.4440000000       96.5230000000
H                34.5250000000       27.2900000000       97.2240000000
H                35.2940000000       27.4660000000       95.6220000000
H                34.8500000000       24.8550000000       97.0990000000
H                33.8750000000       25.4670000000       95.7340000000
H                36.5180000000       24.2270000000       95.6260000000
H                34.1540000000       26.2780000000       93.9960000000
H                34.8130000000       25.9560000000       92.3890000000
H                37.3560000000       23.8150000000       93.5630000000
H                36.6180000000       24.5670000000       92.1450000000
N                38.9160000000       25.2130000000       98.6830000000
C                40.2950000000       25.1050000000       99.1570000000
C                41.0320000000       26.4120000000       98.8550000000
O                41.2250000000       26.7660000000       97.7090000000
C                41.0070000000       23.8930000000       98.5510000000
C                42.2320000000       23.4280000000       99.3350000000
C                42.8540000000       22.1860000000       98.6900000000
C                44.3020000000       21.9650000000       99.1190000000
N                44.4780000000       21.9360000000      100.6030000000
H                38.6340000000       24.4750000000       98.0380000000
H                40.3060000000       24.9410000000      100.2350000000
H                40.3050000000       23.0600000000       98.5110000000
H                41.3370000000       24.1500000000       97.5450000000
H                42.9790000000       24.2220000000       99.3470000000
H                41.9380000000       23.1770000000      100.3540000000
H                42.2780000000       21.3070000000       98.9810000000
H                42.8370000000       22.3010000000       97.6060000000
H                44.6470000000       21.0100000000       98.7220000000
H                44.9150000000       22.7750000000       98.7250000000
H                45.4790000000       21.7830000000      100.8400000000
H                44.1680000000       22.8390000000      101.0160000000
H                43.9130000000       21.1650000000      101.0130000000
N                41.3430000000       27.1710000000       99.8990000000
C                42.1890000000       28.3410000000       99.7690000000
C                41.5100000000       29.5920000000       99.2410000000
O                42.1900000000       30.4810000000       98.7110000000
H                41.0210000000       26.9980000000      100.8510000000
H                42.6000000000       28.5800000000      100.7500000000
H                43.0070000000       28.1010000000       99.0900000000
N                40.1910000000       29.6920000000       99.3750000000
C                39.5040000000       30.8570000000       98.8440000000
C                39.5140000000       31.9320000000       99.9170000000
O                40.1020000000       32.9880000000       99.7210000000
C                38.0990000000       30.4870000000       98.3950000000
C                37.3480000000       31.5970000000       97.7100000000
C                36.7210000000       32.5990000000       98.4410000000
C                37.2170000000       31.6060000000       96.3490000000
C                36.0060000000       33.5980000000       97.8070000000
C                36.5070000000       32.6040000000       95.6980000000
C                35.8920000000       33.6000000000       96.4270000000
H                39.5930000000       29.0030000000       99.8320000000
H                39.9950000000       31.2390000000       97.9490000000
H                38.1670000000       29.6550000000       97.6940000000
H                37.5220000000       30.1910000000       99.2710000000
H                36.7930000000       32.5970000000       99.5190000000
H                37.6760000000       30.8190000000       95.7690000000
H                35.5360000000       34.3770000000       98.3880000000
H                36.4360000000       32.6010000000       94.6200000000
H                35.3280000000       34.3730000000       95.9270000000
N                38.9330000000       31.6560000000      101.0780000000
C                38.8490000000       32.6830000000      102.1310000000
C                40.2150000000       33.1010000000      102.6830000000
O                40.2970000000       33.9450000000      103.5890000000
C                37.9210000000       32.2340000000      103.2820000000
O                38.4840000000       31.1750000000      104.0430000000
H                38.5190000000       30.7570000000      101.3230000000
H                38.3910000000       33.5670000000      101.6880000000
H                37.7480000000       33.0840000000      103.9420000000
H                36.9770000000       31.8940000000      102.8560000000
H                37.8700000000       30.9160000000      104.7620000000
N                41.2540000000       32.4480000000      102.1630000000
C                42.6590000000       32.7570000000      102.4010000000
C                43.1300000000       33.7300000000      101.3200000000
O                43.7880000000       34.7110000000      101.6050000000
C                43.4860000000       31.4580000000      102.4080000000
C                43.1140000000       30.4660000000      103.5340000000
C                41.8930000000       29.5360000000      103.2690000000
O                41.1740000000       29.6720000000      102.2460000000
O                41.6200000000       28.6520000000      104.1210000000
H                41.1470000000       31.6520000000      101.5350000000
H                42.8220000000       33.2070000000      103.3800000000
H                43.3370000000       30.9470000000      101.4570000000
H                44.5380000000       31.7170000000      102.5320000000
H                43.9730000000       29.8200000000      103.7130000000
H                42.8870000000       31.0420000000      104.4310000000
N                42.7550000000       33.4700000000      100.0770000000
C                42.9350000000       34.4360000000       99.0020000000
C                42.2700000000       35.7640000000       99.3100000000
O                42.8970000000       36.8420000000       99.2110000000
H                42.3210000000       32.5970000000       99.7760000000
H                44.0000000000       34.6110000000       98.8470000000
H                42.5040000000       34.0390000000       98.0830000000
N                41.0040000000       35.6680000000       99.7220000000
C                40.2250000000       36.8320000000      100.1440000000
C                40.9680000000       37.5540000000      101.2040000000
O                41.0310000000       38.7780000000      101.1790000000
C                38.8680000000       36.4490000000      100.7110000000
C                37.7440000000       36.0800000000       99.7390000000
C                36.5580000000       35.5500000000      100.5390000000
C                37.3240000000       37.2520000000       98.8630000000
H                40.4840000000       34.7920000000       99.7760000000
H                40.0520000000       37.4520000000       99.2650000000
H                39.0150000000       35.5840000000      101.3580000000
H                38.5060000000       37.2950000000      101.2960000000
H                38.1040000000       35.3100000000       99.0570000000
H                35.7550000000       35.2860000000       99.8510000000
H                36.8730000000       34.6690000000      101.0990000000
H                36.2180000000       36.3250000000      101.2260000000
H                36.5250000000       36.9280000000       98.1960000000
H                36.9710000000       38.0630000000       99.5000000000
H                38.1830000000       37.5850000000       98.2800000000
N                41.5350000000       36.8050000000      102.1470000000
C                42.3010000000       37.4720000000      103.1880000000
C                43.4820000000       38.1950000000      102.5850000000
O                43.6520000000       39.3320000000      102.8760000000
C                42.7450000000       36.5860000000      104.3610000000
C                43.4450000000       37.4420000000      105.4140000000
C                42.8640000000       38.1090000000      106.4590000000
C                44.8300000000       37.7830000000      105.4480000000
N                43.8140000000       38.8070000000      107.1570000000
C                45.0280000000       38.6270000000      106.5510000000
C                45.9190000000       37.4470000000      104.6610000000
C                46.2730000000       39.1310000000      106.8830000000
C                47.1530000000       37.9440000000      105.0000000000
C                47.3220000000       38.7770000000      106.0970000000
H                41.4840000000       35.7880000000      102.2130000000
H                41.6090000000       38.1760000000      103.6500000000
H                41.8750000000       36.1120000000      104.8140000000
H                43.4410000000       35.8260000000      104.0060000000
H                41.8110000000       38.0880000000      106.6980000000
H                43.6440000000       39.3690000000      107.9910000000
H                45.8000000000       36.8080000000      103.7990000000
H                46.4050000000       39.7810000000      107.7350000000
H                48.0110000000       37.6810000000      104.4000000000
H                48.3080000000       39.1510000000      106.3300000000
N                44.2410000000       37.5800000000      101.6910000000
C                45.4340000000       38.2280000000      101.1390000000
C                45.1550000000       39.5720000000      100.4110000000
O                45.7620000000       39.8600000000       99.4340000000
C                46.1930000000       37.2240000000      100.2460000000
C                46.9670000000       36.1260000000      100.9890000000
C                47.4190000000       34.9490000000      100.0940000000
O                47.0860000000       34.9480000000       98.8950000000
O                48.0940000000       33.9860000000      100.5630000000
H                44.0650000000       36.6430000000      101.3280000000
H                46.0770000000       38.5170000000      101.9710000000
H                45.4700000000       36.7280000000       99.5980000000
H                46.9140000000       37.7780000000       99.6450000000
H                47.8610000000       36.5670000000      101.4300000000
H                46.3280000000       35.7180000000      101.7720000000
N                44.2330000000       40.4010000000      100.8760000000
C                44.2160000000       41.8220000000      100.4920000000
C                43.6870000000       42.8550000000      101.5990000000
O                42.5010000000       43.2500000000      101.5480000000
C                43.4160000000       42.0520000000       99.1530000000
C                44.0030000000       41.4120000000       97.8770000000
C                43.2740000000       43.5570000000       98.8890000000
C                43.3860000000       40.1180000000       97.4170000000
H                43.4860000000       40.1310000000      101.5160000000
H                45.2760000000       42.0520000000      100.3840000000
H                42.4670000000       41.5480000000       99.3340000000
H                43.8900000000       42.1250000000       97.0600000000
H                45.0600000000       41.2140000000       98.0560000000
H                42.7200000000       43.7040000000       97.9620000000
H                42.7360000000       44.0140000000       99.7200000000
H                44.2670000000       43.9970000000       98.8020000000
H                43.8950000000       39.7840000000       96.5130000000
H                43.4980000000       39.3720000000       98.2040000000
H                42.3290000000       40.2830000000       97.2090000000
N                44.4640000000       43.2880000000      102.6200000000
C                45.6690000000       42.6670000000      103.2540000000
C                46.9110000000       42.6480000000      102.4250000000
O                47.0060000000       43.4360000000      101.4930000000
C                45.3860000000       41.2600000000      103.7930000000
C                44.0540000000       41.1280000000      104.5040000000
C                44.0060000000       41.9410000000      105.7350000000
O                45.0890000000       42.2530000000      106.2730000000
O                42.8760000000       42.2630000000      106.1430000000
H                44.2680000000       44.1710000000      103.0910000000
H                45.8920000000       43.3290000000      104.0910000000
H                45.3870000000       40.5590000000      102.9580000000
H                46.1690000000       40.9940000000      104.5030000000
H                43.2580000000       41.4660000000      103.8410000000
H                43.8940000000       40.0850000000      104.7770000000
N                47.8750000000       41.7900000000      102.7890000000
C                49.0800000000       41.4980000000      101.9500000000
C                48.8440000000       41.0990000000      100.4730000000
O                48.6070000000       39.9730000000      100.1550000000
C                49.9310000000       40.3980000000      102.6100000000
C                51.1760000000       40.0590000000      101.8040000000
O                51.4390000000       40.6540000000      100.7460000000
N                51.9410000000       39.0980000000      102.2910000000
H                47.8650000000       41.2680000000      103.6650000000
H                49.5970000000       42.4570000000      101.9000000000
H                50.2490000000       40.7370000000      103.5960000000
H                49.3320000000       39.4920000000      102.7030000000
H                52.7910000000       38.8230000000      101.7980000000
H                51.6820000000       38.6310000000      103.1600000000
N                49.0030000000       42.0110000000       99.5690000000
C                48.5480000000       41.7110000000       98.2580000000
C                49.6200000000       41.5170000000       97.2320000000
O                49.2860000000       41.0640000000       96.1370000000
C                47.6090000000       42.7830000000       97.8080000000
C                48.1630000000       44.1270000000       98.0610000000
O                48.5240000000       44.4240000000       99.1960000000
N                48.3200000000       44.9230000000       97.0130000000
H                49.4260000000       42.9290000000       99.7090000000
H                48.0560000000       40.7400000000       98.3210000000
H                47.4310000000       42.6810000000       96.7370000000
H                46.6690000000       42.6910000000       98.3520000000
H                48.6990000000       45.8620000000       97.1380000000
H                48.0610000000       44.5970000000       96.0820000000
N                51.8660000000       39.2590000000       97.7170000000
C                52.4460000000       38.0760000000       98.3370000000
C                53.2390000000       37.3930000000       97.2760000000
O                52.9160000000       37.4720000000       96.1000000000
C                51.3890000000       37.0350000000       98.7740000000
O                50.3540000000       37.6810000000       99.5060000000
C                52.0050000000       35.9060000000       99.6230000000
H                50.8680000000       39.1710000000       97.5260000000
H                53.0110000000       38.3820000000       99.2180000000
H                50.9700000000       36.5700000000       97.8820000000
H                49.6810000000       37.0250000000       99.7850000000
H                51.2330000000       35.1930000000       99.9120000000
H                52.7710000000       35.3840000000       99.0500000000
H                52.4580000000       36.3210000000      100.5230000000
N                54.6190000000       33.4160000000       96.4190000000
C                55.0010000000       32.0200000000       96.7370000000
C                55.2000000000       31.3070000000       95.4710000000
O                54.5670000000       31.6950000000       94.5110000000
C                53.9590000000       31.2650000000       97.5510000000
C                54.6050000000       30.3400000000       98.5570000000
C                53.6740000000       29.2550000000       99.0100000000
C                53.3530000000       28.3040000000       97.8680000000
N                52.7150000000       27.0930000000       98.4250000000
O                55.9830000000       30.3590000000       95.4150000000
H                54.2970000000       33.5700000000       95.4640000000
H                55.9010000000       32.0450000000       97.3510000000
H                53.3370000000       31.9790000000       98.0910000000
H                53.3430000000       30.6660000000       96.8800000000
H                55.4770000000       29.8700000000       98.1030000000
H                54.9050000000       30.9160000000       99.4320000000
H                54.1430000000       28.6850000000       99.8130000000
H                52.7430000000       29.6990000000       99.3620000000
H                52.6650000000       28.7790000000       97.1690000000
H                54.2700000000       28.0180000000       97.3520000000
H                52.4870000000       26.4270000000       97.6590000000
H                53.3590000000       26.6280000000       99.0960000000
H                51.8380000000       27.3490000000       98.9220000000
N                51.2306353160       24.3880632713       92.8340000000
C                52.0303087774       23.6111383360       93.7790000000
C                51.3774472162       22.2883489417       94.0390000000
O                50.1606897616       22.1848632098       94.0240000000
C                52.1872928076       24.3530426522       95.0780000000
C                52.9549075443       25.6245903768       94.9370000000
C                54.3319059780       25.6136216260       94.9560000000
C                52.3010238472       26.8300305913       94.7600000000
C                55.0473508417       26.7848084799       94.8240000000
C                53.0144687110       27.9977533437       94.6250000000
C                54.3890652209       27.9766243388       94.6640000000
H                50.3829015634       24.7897453406       93.2340000000
H                53.0194348348       23.4303549225       93.3580000000
H                51.1989539373       24.5991895137       95.4660000000
H                52.7185605717       23.7172254121       95.7860000000
H                54.8572474257       24.6775397047       95.0760000000
H                51.2218977899       26.8549294321       94.7280000000
H                56.1271108737       26.7630077153       94.8470000000
H                52.4940913649       28.9344333412       94.4880000000
H                54.9478498306       28.8964676733       94.5690000000
N                46.9920000000       34.8730000000      108.9620000000
C                46.2320000000       33.6280000000      108.7060000000
C                46.7940000000       32.4060000000      109.4450000000
O                47.8190000000       32.5260000000      110.1340000000
C                46.2880000000       33.4950000000      107.1880000000
C                46.3300000000       34.9250000000      106.7210000000
C                47.2070000000       35.6420000000      107.7180000000
H                45.1950000000       33.7450000000      109.0210000000
H                47.1840000000       32.9520000000      106.8870000000
H                45.4000000000       32.9820000000      106.8190000000
H                46.7580000000       34.9750000000      105.7200000000
H                45.3230000000       35.3430000000      106.7170000000
H                48.2530000000       35.6050000000      107.4140000000
H                46.8900000000       36.6780000000      107.8410000000
N                40.5570000000       31.6560000000      109.1200000000
C                40.6410000000       32.6830000000      108.0670000000
C                39.2750000000       33.1010000000      107.5150000000
O                39.1930000000       33.9450000000      106.6090000000
C                41.5690000000       32.2340000000      106.9160000000
O                41.0060000000       31.1750000000      106.1550000000
H                40.9710000000       30.7570000000      108.8750000000
H                41.0990000000       33.5670000000      108.5100000000
H                41.7420000000       33.0840000000      106.2560000000
H                42.5130000000       31.8940000000      107.3420000000
H                41.6200000000       30.9160000000      105.4360000000
H                45.4946165475       44.1542781741       91.0126603486
H                42.0392676323       42.2856994712       90.8310200379
H                36.7968929517       33.4810353342       91.5570950155
H                46.9890502771       40.2989945397       88.6085443263
H                48.5304593359       35.7748724731       88.3519667101
H                48.7362572268       30.1851873768       89.2639034482
H                34.9517034566       26.6211766265       99.3121487595
H                50.5674333304       41.7530449846       97.4479927075
H                51.9741059282       39.9672554702       98.2616900929
H                54.0487528723       36.8602224819       97.5218625673
H                53.9483866578       33.6747649747       96.9605888045
H                51.7216787821       25.0720725252       92.5161829850
H                51.9385283295       21.4821135985       94.2265434768
H                46.4478270577       35.4861954322      109.3333046873
H                46.3345774099       31.5210112852      109.3693305981
H                40.9846204059       31.9457247594      109.8570212699
H                38.4401983810       32.6930786626      107.8847383392
