 267 
 
N                10.3127864752       76.5445102479       -6.8709687602
C                10.9855866638       75.4141349042       -6.2678235043
C                11.5730604052       74.5255610757       -7.3683416464
O                12.5915919342       73.8557395276       -7.1866343507
C                10.0668493278       74.5584460890       -5.3800169680
C                 9.5082349060       75.3033667927       -4.1557521676
C                 8.7311724147       74.3960510355       -3.1810897878
N                 9.3759989772       74.4077974043       -1.8807870874
C                 9.8856117819       73.3671045952       -1.2288867556
N                 9.4801382998       72.1099757070       -1.4412065035
N                10.8197208755       73.5841516832       -0.2963961031
H                 9.3647352190       76.7655504838       -6.5816206928
H                11.8313763003       75.7767933789       -5.6659587895
H                 9.2681039410       74.1677522250       -6.0108921457
H                10.6666733680       73.7117963223       -5.0405437142
H                10.3468880018       75.7424208712       -3.6145184156
H                 8.8845020976       76.1330237121       -4.4792852754
H                 7.6964541255       74.7115841985       -3.0687773019
H                 8.7169540080       73.3775229400       -3.5706238765
H                 9.5915947532       75.3516028329       -1.5255048498
H                 8.7460960982       71.9225990944       -2.1039815475
H                10.0083694434       71.3344525741       -1.0730113740
H                11.1227693558       74.5277080017       -0.1166295093
H                11.1978316182       72.8318172625        0.2561990046
N                10.8934878551       74.5087478940       -8.5010326012
C                11.3099206340       73.6966377027       -9.6105799457
C                12.3992368061       74.3673649137      -10.4351111082
O                13.4840649885       73.8261933318      -10.6082705487
C                10.1386455528       73.3420233214      -10.5144881589
C                10.5797796549       72.1821797412      -11.3930517030
C                10.8607907902       71.0155467841      -10.3843090111
O                12.0291231240       70.8400019580      -10.0133657073
O                 9.8420939366       70.3940320842       -9.9963384378
H                10.0048077341       74.9882710956       -8.5707125006
H                11.7670082136       72.7866507800       -9.2055116910
H                 9.2968078620       73.0345601238       -9.8889404017
H                 9.8395614430       74.2220412621      -11.0891630024
H                 9.7890673722       71.9147283484      -12.0904886650
H                11.4920125188       72.4388571470      -11.9310726374
N                12.1065238494       75.5355193432      -11.0022646053
C                13.1415357285       76.2773088956      -11.6905640812
C                14.4790494784       76.0761805505      -10.9770252389
O                15.4853169064       75.7310551983      -11.5886768192
C                12.7677242018       77.7541014221      -11.7150810574
C                11.5238022228       78.0010892578      -12.5617532913
C                10.9679380265       79.4367169538      -12.2986192484
O                 9.7485099806       79.5246906339      -12.0375386309
O                11.7839235585       80.3796935455      -12.3673238953
H                11.2483298624       76.0205546805      -10.7638279599
H                13.2534474541       75.8913856695      -12.7137563699
H                12.5970674547       78.0869961367      -10.6873696691
H                13.6005419264       78.3466252910      -12.0968350072
H                11.7715351969       77.9047119116      -13.6205770251
H                10.7274811422       77.2996458138      -12.3146802903
N                14.4311405566       76.3423406637       -9.6714025292
C                15.5678274926       76.2700590135       -8.7819012598
C                16.0818607066       74.8194703398       -8.7002009985
O                17.2080116975       74.5616996699       -9.1097046494
C                15.2405877884       76.8644417777       -7.4012981451
C                15.7354456413       78.2979012638       -7.1385571839
C                14.9718669238       79.4843059090       -7.8333741786
O                14.8250671860       80.5248008570       -7.1434397402
O                14.5968082309       79.3471421684       -9.0119943241
H                13.5749878922       76.7016825155       -9.2739050950
H                16.3976709212       76.8275987563       -9.2421531853
H                14.1583464707       76.8277086269       -7.2626975882
H                15.6936892540       76.2211007761       -6.6417383060
H                15.6875146820       78.4906353852       -6.0644881364
H                16.7804519476       78.3831553135       -7.4491337450
N                15.3304450466       73.8607362382       -8.1385232687
C                15.9194853355       72.5377105685       -7.9805819303
C                16.2783117827       71.8213590475       -9.2998209556
O                17.0563829876       70.8717156516       -9.2671462895
C                15.1033641655       71.6258391521       -7.0399765523
O                13.8339393636       71.2509737852       -7.4964397847
H                14.3540187442       73.9860112411       -7.8879818300
H                16.8962603429       72.6826823787       -7.4952114256
H                15.6677805803       70.6969345700       -6.9239162848
H                15.0243596792       72.1327122978       -6.0682161921
H                13.2749108475       72.0414642495       -7.5488252707
N                15.7796982496       72.3589037052      -10.4131363009
C                16.0312199491       71.8905032704      -11.7640912226
C                17.4080499146       72.3405160262      -12.2538361445
O                18.2552803510       71.5200781924      -12.6052642164
C                14.9755675565       72.4259271440      -12.7232993806
H                15.0339629557       73.0370159030      -10.3331093290
H                16.0395557528       70.7924543084      -11.7643799908
H                15.2014946580       72.1065252561      -13.7368067937
H                13.9981611138       72.0490855670      -12.4326478575
H                14.9549936841       73.5117409535      -12.6829181338
N                17.6253882518       73.6601453533      -12.2949154238
C                18.9197918515       74.1463906022      -12.7164239898
C                20.0175893467       73.9948616869      -11.6376710319
O                21.1777204268       74.2734669410      -11.9050731874
C                18.8430319332       75.5318889102      -13.3297388158
H                16.9386352440       74.3261994009      -11.9598369655
H                19.2628665834       73.4431231149      -13.4908920495
H                19.8508102648       75.8860912639      -13.5304574293
H                18.2835309457       75.4957020819      -14.2594088124
H                18.3480756342       76.2203905717      -12.6481912133
N                19.6544187686       73.4118735870      -10.4844221397
C                20.6171603444       72.8596422381       -9.5405295340
C                21.3792899692       71.7028990222      -10.1957537531
O                22.5988321558       71.7434021760      -10.3229086395
C                19.9295972646       72.3506785768       -8.2806686517
H                18.6787117642       73.3785008981      -10.2221838534
H                21.3618162022       73.6292185298       -9.2994048588
H                20.6605321152       71.8723908000       -7.6352641864
H                19.4724801575       73.1849250221       -7.7546954552
H                19.1536142153       71.6303518364       -8.5315319152
N                20.6388858403       70.6581611953      -10.5725678415
C                21.2125401006       69.4892294492      -11.2222260215
C                21.9652796021       69.9167862178      -12.4792876033
O                23.1388528915       69.6158748671      -12.6506529129
C                20.1349303883       68.4698146944      -11.5515125543
H                19.6300481393       70.7211650415      -10.5463691961
H                21.9527132180       69.0217625590      -10.5555049862
H                20.5901678144       67.6190111459      -12.0493665316
H                19.6666812689       68.1278042382      -10.6327904122
H                19.3766626825       68.9051421509      -12.1991902793
N                21.2646608966       70.6569463893      -13.3469194594
C                21.8140439397       71.1050704882      -14.6165191383
C                23.2065762914       71.7273436807      -14.4639978704
O                23.9926198565       71.7250784067      -15.4014823974
C                20.8592184705       72.1110541564      -15.2709591474
C                21.1346831382       72.3638968167      -16.7522700202
C                20.1903593611       71.5667366350      -17.7188477483
O                20.0725631700       72.0419819441      -18.8674023565
O                19.6395903709       70.5362854718      -17.2835111674
H                20.2817770867       70.8373780620      -13.1794123852
H                21.9304200361       70.2444728736      -15.2921468316
H                19.8457039789       71.7041096982      -15.1833803999
H                20.9160512170       73.0483757934      -14.7112465184
H                21.0056697783       73.4188184699      -16.9964912058
H                22.1584588295       72.0840357775      -17.0060404011
N                23.4963800286       72.3029964253      -13.2865375871
C                24.8067093861       72.8466058824      -13.0300320013
C                25.7182167689       71.9488071195      -12.2016307551
O                26.8161268797       71.6480698221      -12.6793854501
C                24.7438537818       74.2526310477      -12.4295762810
C                26.1355681229       74.6863446201      -11.9746454881
C                24.1957969628       75.1943619089      -13.4941420099
H                22.8209125091       72.3217528067      -12.5378774372
H                25.2862939102       72.8983567429      -14.0171963401
H                24.0551410014       74.2323261606      -11.5791132251
H                26.1055351742       75.7164968031      -11.6318213693
H                26.4915133390       74.0607669664      -11.1608311526
H                26.8352557568       74.6087367742      -12.8025627730
H                24.1188332980       76.2052670753      -13.1032497343
H                24.8437326411       75.1966908198      -14.3666701207
H                23.2025652389       74.8728773315      -13.7977965935
N                25.3987931320       71.5790012086      -10.9636571051
C                26.3397229848       70.6926820210      -10.2898166670
C                26.7961956815       69.5865457282      -11.2477571878
O                27.9686284441       69.2261151857      -11.2806652304
C                25.8222524727       70.1023964576       -8.9762848059
C                24.4629338832       69.4092145442       -9.0725678179
C                24.4633366295       67.8832566980       -9.4196881623
O                25.5040773165       67.2249157887       -9.2211951801
O                23.3795751165       67.4331219293       -9.8491626988
H                24.4690299845       71.7160948880      -10.5915176425
H                27.2523758164       71.2671646110      -10.0714198272
H                26.5583816929       69.3705964348       -8.6312190893
H                25.7619219966       70.9071176596       -8.2421828588
H                23.9523624577       69.4764685405       -8.1071065733
H                23.8184202595       69.8947030412       -9.8029488086
N                25.8662383616       69.0429473543      -12.0410455510
C                26.2151277284       67.9468744950      -12.9211308130
C                27.4042785417       68.2999165228      -13.7959060455
O                28.2742169423       67.4699359984      -14.0439690276
C                25.0524643135       67.5711427606      -13.8401759698
C                25.3694184235       66.3689861846      -14.7246242928
C                25.3163905023       66.6499534808      -16.2723561961
O                25.1708783839       67.8177459550      -16.6673372279
O                25.4731212396       65.6258191852      -16.9736057950
H                24.8923372961       69.3050099004      -11.9923639961
H                26.5052175760       67.0872425492      -12.2988859831
H                24.1714864092       67.3903863170      -13.2187353293
H                24.8167705693       68.4320659917      -14.4757845061
H                26.3811871490       66.0107564292      -14.5305191868
H                24.6524076425       65.5650594998      -14.5555224781
N                27.3773894589       69.5212455454      -14.3299988552
C                28.4812603716       69.9719852551      -15.1431874499
C                29.7982212683       69.8952491757      -14.3782197204
O                30.7600212260       69.2095995466      -14.7658221871
C                28.1853153163       71.3929492295      -15.6104966883
C                29.4279022536       72.0784893458      -16.1827357684
C                29.0849926908       73.0760838095      -17.2864260294
N                28.7160642765       72.3667055641      -18.4947927271
C                28.9364488882       72.7578369875      -19.7659874322
N                29.4409036753       73.9896959322      -20.0534653163
N                28.4084909931       72.0037499604      -20.7736261768
H                26.8444513330       70.2534414001      -13.8698922701
H                28.5813811829       69.2883833859      -16.0000556160
H                27.3832297807       71.3386774948      -16.3484054138
H                27.8102532165       71.9585594395      -14.7564981772
H                29.9668765989       72.5977831373      -15.3919009156
H                30.1112339971       71.3307824277      -16.5956464377
H                28.2548414821       73.7160800427      -16.9684692121
H                29.9554463871       73.7019942527      -17.4921454699
H                28.2168213954       71.4995867756      -18.3684606244
H                30.0677917164       74.4196991215      -19.3888266867
H                29.7517598115       74.1524859751      -20.9994782277
H                28.1847669941       71.0388292568      -20.5881949810
H                28.7346887375       72.1792533618      -21.7102742833
N                29.8879005498       70.6700943859      -13.2761909249
C                31.1448343966       70.7184212315      -12.5870181714
C                31.5040775693       69.4171590542      -11.8571214045
O                32.6026556155       69.2928538568      -11.3222255720
C                31.2597745399       71.9546192309      -11.6935671857
O                30.2123451152       71.9092910465      -10.7525742092
C                31.2211026370       73.2368356225      -12.5304164419
H                29.0635027618       71.0328816293      -12.8168128106
H                31.9281363725       70.7963473971      -13.3580730140
H                32.2340076793       71.8742952533      -11.1838895094
H                30.3064754424       72.6752806391      -10.1676057165
H                31.2735476188       74.1096798868      -11.8846545478
H                32.0619634767       73.2741382552      -13.2167794468
H                30.3021814296       73.2751214614      -13.1091333889
N                30.6127877440       68.4329617059      -11.9144683195
C                30.9646446177       67.0766534695      -11.5578037717
C                31.7985018919       66.4314387802      -12.6518741049
O                32.8854717743       65.8827334687      -12.4052546369
C                29.7169652472       66.2320383189      -11.3263387265
C                30.1337817804       64.8065275796      -10.9740259965
C                28.9348310119       63.9015600170      -10.7149751232
N                28.1624178472       63.6600688309      -11.9189631158
C                26.9214153653       64.0474824212      -12.1825268817
N                26.2300635934       64.8255986078      -11.3553225886
N                26.2902008398       63.4936652821      -13.2253132553
H                29.6965096523       68.5974826389      -12.3023543347
H                31.5938604247       67.1231288529      -10.6604046864
H                29.1311801032       66.6885216916      -10.5266904920
H                29.1269225585       66.2565158719      -12.2440193842
H                30.7361253760       64.4032449599      -11.7889967073
H                30.7585801704       64.8306654147      -10.0817409692
H                29.2947950662       62.9307398290      -10.3652364018
H                28.2976456082       64.3395361620       -9.9488317261
H                28.6653047149       63.1597542437      -12.6408554040
H                26.6533173293       65.3539128303      -10.6066330304
H                25.2821486941       65.0851259087      -11.5743956299
H                26.7956151734       62.9049589856      -13.8684874753
H                25.4273377668       63.8860765036      -13.5658117631
N                31.2376821428       66.4007513326      -13.8868848393
C                32.0739232190       65.9652669240      -14.9884757257
C                33.4885690877       66.5212356829      -14.8351588972
O                34.4748620591       65.7932588472      -14.9713314595
C                31.4639415892       66.3055118646      -16.3533052228
C                30.6453990749       65.1451348704      -16.9303457616
C                29.3858544470       64.8392349250      -16.1185767362
C                28.8546790768       63.4203458281      -16.3261806934
N                27.9670650630       63.2846917285      -17.5038505591
H                30.5254534591       67.0875625243      -14.1056721648
H                32.1908311357       64.8730928304      -14.9200992559
H                30.8526695041       67.2062396343      -16.2624406081
H                32.2734842305       66.5413458025      -17.0531440398
H                30.3883684161       65.3716241740      -17.9692752784
H                31.2901922083       64.2634855936      -16.9445329687
H                29.6295682660       64.9749215349      -15.0659844727
H                28.6082396580       65.5661560996      -16.3665353377
H                29.6967039270       62.7350448747      -16.4413730710
H                28.2703648321       63.1420309938      -15.4482053094
H                27.5464495192       62.3531319178      -17.5453330143
H                27.2225839045       63.9945650540      -17.4936767633
H                28.4978279735       63.4194632605      -18.4617158768
H                10.7797761239       77.2957222213       -6.7048325537
H                33.6252029400       67.4884985689      -14.6213045079
