 408 
 
N                27.5209857998       30.7725962914       75.9358224396
C                26.9485036381       32.0003897868       76.5302670070
C                26.6267839705       32.9643989824       75.3466100982
O                27.2655244369       33.9437733251       75.0576073553
C                27.8027928400       32.6446789065       77.6895278980
O                28.9153939364       33.4076016921       77.2870623855
H                26.8666161993       30.0166845096       75.8522103151
H                26.0035250551       31.7121536202       76.9989591519
H                27.1461608660       33.3116590333       78.2342713543
H                28.1337125424       31.8312147146       78.3222757184
H                29.4766086287       32.8061668896       76.7484858090
N                25.5638025270       32.5460188469       74.6137621443
C                25.1068485615       33.4703747950       73.5829583069
C                24.7590711074       34.7888616185       74.2660792660
O                24.2136942463       34.7961430009       75.2294140337
C                23.9627706335       32.8857191028       72.7345975430
C                24.4888576070       31.7974184817       71.7658925219
C                22.8368156012       32.3571746137       73.6082584009
H                24.8927307834       31.9226896662       74.9915703447
H                25.9781187721       33.6347950816       72.9080856344
H                23.5808514622       33.7057757023       72.1295549860
H                23.6825812718       31.3854701515       71.1949448276
H                25.2390298609       32.2076758893       71.1003776014
H                24.9588546013       30.9857768966       72.3437591207
H                21.9387529094       32.2103916521       72.9891899072
H                23.0816346363       31.3736662808       74.0241913420
H                22.5957192719       33.0448915643       74.3915965182
N                25.2433168702       35.8772631256       73.6649601465
C                25.4453812123       37.1479978162       74.3204457997
C                24.1106196040       37.6852951136       74.8739670657
O                23.0648963400       37.5767835006       74.2162969037
C                26.0638295611       38.1633912083       73.3408141639
C                27.1335336311       39.1026663312       73.9027732492
C                28.4071769202       38.3811486809       74.3896315262
N                28.4411007225       38.2647499515       75.8598825682
C                28.7010431347       37.1736774445       76.6028681489
N                28.9045862883       35.9933363406       76.0659537261
N                28.7443328667       37.3054967291       77.9460465613
H                25.7256518830       35.7701189229       72.7699447622
H                26.1300504645       36.9727190897       75.1683621094
H                26.5209440667       37.6131700599       72.5240413168
H                25.2574198664       38.7739906309       72.9240110743
H                27.4236207085       39.7656738223       73.0972510148
H                26.7300999929       39.7417451704       74.6968396551
H                28.4767140537       37.3989467400       73.9505047238
H                29.2779784885       38.9613570591       74.1047713325
H                28.3875748732       39.1535604193       76.3373717004
H                28.6856067907       35.8024333608       75.0837200991
H                28.9351746964       35.1534156431       76.6310831055
H                28.7546569251       38.2077529072       78.3726328599
H                29.0052888425       36.5061836204       78.4836331675
N                24.1457868551       38.3270367621       76.0385458991
C                22.9572980335       38.8494338444       76.6590387783
C                22.0354914143       39.5077938009       75.6874398043
O                22.3904773207       40.3085189719       74.9171481586
C                23.4936382005       39.8477133822       77.6715033526
C                24.7020272485       39.0760937356       78.2469086209
C                25.2760025229       38.4166390505       76.9899037120
H                22.4096797997       38.0274886158       77.1949319852
H                23.8346829572       40.7363974005       77.1679260528
H                22.7676269327       40.0896580177       78.4512965476
H                25.4248863191       39.7258616698       78.7263267064
H                24.3533546732       38.3303677650       78.9581193559
H                26.0534153869       39.0396402154       76.5569044954
H                25.6812086987       37.4148144724       77.2204312325
N                20.7528685047       39.1948255581       75.8823741528
C                19.6604625766       39.7605126315       75.1057263580
C                19.4489677968       41.2738216505       75.3590449295
O                18.8990818725       41.9790682059       74.5934181725
C                18.4018231796       38.9516693543       75.4110043259
C                17.1889853676       39.3596046062       74.6237376068
C                16.2374855197       40.2146875511       75.1903860314
C                16.9684517144       38.8049151422       73.3916848769
C                15.0703197843       40.4863328334       74.5573238392
C                15.7706879242       39.0815930548       72.7305795218
C                14.8227384049       39.9181694857       73.3204000617
H                20.4858210980       38.5403404550       76.6575615181
H                19.8987736169       39.6611915229       74.0580117542
H                18.6294135528       37.8973279284       75.2341982340
H                18.1892014515       39.0304002849       76.5042882238
H                16.4000072866       40.5816219098       76.2017042107
H                17.6752351627       38.1365275105       72.9485594399
H                14.3341982746       41.1282608927       75.0020215920
H                15.5635737945       38.6528942821       71.7627079772
H                13.9062275375       40.1439171810       72.7820256339
N                19.9846758323       41.7477592576       76.5162463064
C                20.0722189200       43.1851852688       76.7380439721
C                20.9352354395       43.8780996715       75.6543743076
O                20.6959143097       45.0198221844       75.3144345939
C                20.6721028690       43.4804111391       78.1390510960
C                19.6817653624       43.4140818190       79.3021929063
C                18.7629802024       44.6535033327       79.3585740783
C                17.9387046976       44.6580909271       80.6456405591
N                17.1925179733       45.9472879142       80.7995674377
H                20.3462937043       41.1238248116       77.2239889037
H                19.0842227744       43.6340332844       76.6608039524
H                21.4823680984       42.7680331952       78.3128236840
H                21.1188099246       44.4781562226       78.1057542539
H                19.0905035944       42.5059223770       79.2544304894
H                20.2648122441       43.3717486225       80.2236471543
H                19.3975493835       45.5388742384       79.3530945796
H                18.0957277617       44.6614036861       78.5131719669
H                17.2198270617       43.8375840761       80.6493185263
H                18.5856699443       44.5275817537       81.5264611431
H                16.4663046126       45.8845323786       81.6293879989
H                17.8277016947       46.7123927045       81.0198717786
H                16.6197713263       46.1455742421       80.0033955026
N                21.9825240690       43.1670032472       75.2004683030
C                22.9297420738       43.6700368431       74.2229865070
C                22.5377360061       43.3629878721       72.7846451401
O                22.8602328439       44.0965784556       71.9003090336
C                24.3372325139       43.0734385112       74.4460394377
C                25.0389791197       43.6441622408       75.6807160529
C                26.4358653554       43.0614840765       75.7841086612
O                26.6413143365       41.8564855694       75.7803924429
N                27.4252704173       43.9624759793       75.8712312186
H                22.0978052350       42.1851167897       75.4528669824
H                22.9584888306       44.7560662867       74.3204416057
H                24.2479591389       41.9904485102       74.5463929032
H                24.9335563835       43.3049957169       73.5717375977
H                25.0759431564       44.7313205378       75.6221772730
H                24.4758017802       43.3719669051       76.5866905350
H                27.2505979653       44.9450771566       75.8879542265
H                28.3733721154       43.6336331758       75.9538585814
N                21.8245881616       42.2291694919       72.6043111531
C                21.3699623717       41.7760090735       71.2981701208
C                20.3303320576       42.7096758856       70.6458223638
O                19.7951075611       42.3452486640       69.6008053749
C                20.6810666838       40.4031670465       71.4209682986
C                21.5961168557       39.1840115182       71.5957403279
C                20.8053201098       37.8644272397       71.4884672607
N                21.2671165638       37.0092887075       70.3599818188
C                21.0555748915       37.1714983717       69.0197831758
N                21.3852674656       36.1574114046       68.1809375943
N                20.4956106076       38.2548474321       68.5061591354
H                21.7572417271       41.5587774863       73.3621511855
H                22.2274286246       41.7314139788       70.6137297300
H                19.9759959468       40.4585484697       72.2440561183
H                20.0967170227       40.2907786676       70.4971827843
H                22.3849218525       39.2281632098       70.8077424082
H                22.0994649817       39.2154506849       72.5393891940
H                20.9449017027       37.2962712367       72.3545396295
H                19.7513435913       38.0841195526       71.3047988762
H                21.7638002415       36.1842009996       70.6253537173
H                21.7148026501       35.2892640652       68.5425429954
H                21.2456564388       36.2648982600       67.2102722939
H                20.4986434879       39.1153886316       69.0692424894
H                20.4246383018       38.3506731110       67.5253214542
N                20.0153864201       43.8279953975       71.2797148279
C                18.9398773140       44.6966966367       70.8682079325
C                19.1533358745       46.1078533090       71.4072285240
O                18.8790195353       46.3474035878       72.6022479096
C                17.6383739442       44.2390260485       71.5278309236
C                17.1699034613       42.8463751252       71.1850808841
C                16.4704155318       42.7317428312       69.8605128023
C                16.2316105277       41.2767652602       69.4814175304
N                17.4799298943       40.7473600526       68.7521055150
H                20.4415414922       44.0430424871       72.1692621627
H                18.8938109892       44.6942651950       69.7668435216
H                17.8290689385       44.2839133611       72.5947562186
H                16.8693680848       44.9693002311       71.2613606075
H                18.0153654180       42.1549124534       71.2479177011
H                16.4701960609       42.5210995368       71.9680913242
H                15.5102997579       43.2450376128       69.8840355279
H                17.0667963360       43.2222983341       69.0717657775
H                16.0490550606       40.6977470707       70.3751455850
H                15.3816439858       41.1645933846       68.8113321320
H                17.3977653032       40.9300600956       67.7723893455
H                18.3147479159       41.2600364784       69.1256256991
H                17.5596236141       39.7333639557       68.9307904296
N                19.5150575177       47.1225709048       70.5686915171
C                19.3980725609       48.4574543770       71.1367827609
C                17.9465512011       48.5399502552       71.6671675491
O                17.0458266544       47.9787327522       71.0488407541
C                19.6417771960       49.5407654601       70.0464184803
O                20.9454882211       49.3620208765       69.6262035318
H                19.8247550878       46.9948380910       69.6501118902
H                20.1130034092       48.5932893566       71.9605166438
H                18.9251053023       49.4043188712       69.2554676020
H                19.4743406959       50.5161336939       70.5416289621
H                21.2059482816       50.1840236417       69.0375305337
N                15.0928601965       48.3622681395       69.1557978180
C                14.8809138235       47.1437841513       68.3808175990
C                13.8440064104       46.2400352597       69.0716116495
O                12.9144542149       45.6991423207       68.4850826357
C                16.2083839724       46.3870955742       68.1530543126
C                17.3821829488       47.2695568043       67.6880852607
C                15.9622333114       45.2264370060       67.1694928081
C                17.1999492900       47.9262297029       66.3300588563
H                15.9752015717       48.4587365553       69.6168351679
H                14.4322876603       47.4260477498       67.4124197526
H                16.4915612937       45.9788785280       69.1307348842
H                17.5504384065       48.0335538660       68.4239180879
H                18.2526725388       46.6233312788       67.6322902224
H                16.8969374188       44.7101082796       66.9879559879
H                15.2270834334       44.5332648430       67.5782686110
H                15.5778253382       45.6055242047       66.2371851765
H                18.0452438859       48.5607837262       66.1032170239
H                17.1188130943       47.1852709178       65.5263115627
H                16.2959354505       48.5440076904       66.2976080392
N                14.1069478046       46.0049151478       70.3696878291
C                13.2335769655       45.1538057525       71.1397900196
C                11.9500244113       45.8490252768       71.6217120532
O                10.9006314078       45.2199415489       71.8118070038
C                13.9819958142       44.5275114628       72.3376396378
C                14.2283401170       45.4634726166       73.5341580250
C                15.6904978170       45.3629128894       73.9944556197
N                15.8218120675       45.9697406992       75.3136553963
C                17.0012345942       46.2140653998       75.9103948791
N                18.1521694473       46.1179854675       75.2781339770
N                16.9628659920       46.4937988421       77.2536045086
H                14.7525066813       46.6016504022       70.8714128637
H                12.9037787034       44.3477434149       70.4754957320
H                13.3765284018       43.6772562102       72.6692151311
H                14.9222405347       44.1543069238       71.9659245338
H                14.0183925181       46.4982871745       73.2634177737
H                13.5670845121       45.2063219694       74.3569342171
H                15.9866960000       44.3180953373       74.0551867026
H                16.3195771166       45.9023609454       73.2913619812
H                15.0017911180       45.9888286869       75.9143136501
H                18.2312108880       46.0291491260       74.2743169526
H                19.0179016153       46.2594453154       75.7756109716
H                16.0444961398       46.5647689208       77.6573046828
H                17.7070902986       47.0279236594       77.6372859100
N                 9.1955078480       44.7783970855       69.6907206994
C                 8.8064853023       43.3789943934       69.8954098440
C                 7.8802021960       43.2375052613       71.1095515183
O                 6.9303395053       42.4387087659       71.1198877923
C                10.0770973101       42.5270090724       70.0429231627
C                 9.8085554576       41.0517931704       69.8351864022
C                11.1146906629       40.2422498230       69.5116842973
O                10.9196738943       39.0828064386       69.1193526522
O                12.2360798434       40.8032878880       69.6492543838
H                10.1817899583       44.9566435856       69.5835313039
H                 8.2346877146       43.0526653772       69.0012703601
H                10.7826596404       42.8536088626       69.2650525167
H                10.5149583437       42.7226060929       71.0071561692
H                 9.3337111422       40.6227435764       70.7196139777
H                 9.1384906550       40.8859051783       68.9861554870
N                11.9048319945       37.1742312970       79.6023736834
C                13.1877911827       36.8200610047       79.0416705110
C                13.9229793991       36.0672730486       80.1618394964
O                14.0910941823       36.5247064148       81.2090439735
C                13.9687574206       38.0589248410       78.6575787209
C                15.4024804771       37.7117042517       78.3431905593
C                13.3177043957       38.7352913314       77.4780878621
H                11.8982772611       37.7102061750       80.4395422187
H                13.0182110425       36.1774859813       78.1724518937
H                13.9411646094       38.7632041164       79.4981551193
H                15.9451560618       38.5879757681       77.9684271039
H                15.9224814445       37.3649263573       79.2302001909
H                15.4584902263       36.9378976205       77.5818769952
H                13.7376019260       39.7184655778       77.2746862125
H                13.4585225576       38.1336029679       76.5578981699
H                12.2414538366       38.8570555287       77.6147476914
N                17.5277501477       34.1764412170       80.8417907019
C                18.9038266909       34.1117224926       80.3858836602
C                19.7075078954       33.3491902951       81.4479739818
O                19.5954770814       33.5652426775       82.6020079565
C                19.5372878913       35.4981192745       80.2461802603
C                18.6241691363       36.5445981421       79.6148362724
C                19.4705802829       37.7031728496       78.9840105018
O                20.1638314101       37.4398916182       78.0481811330
O                19.3190782462       38.8885801298       79.5386497998
H                17.3299216576       34.6154739100       81.7116578379
H                18.8894011123       33.6044764351       79.4101902321
H                19.8368527185       35.8550318483       81.2355431153
H                20.4421276534       35.4075571819       79.6332110734
H                18.0847153485       36.0822027331       78.7702248170
H                17.9166715365       36.9281832407       80.3281253652
N                25.5897651040       34.5987558336       83.1142914509
C                26.7112034618       34.5276832603       82.1777016906
C                27.7990036158       33.5566513598       82.6595753014
O                28.3897888001       32.8292726949       81.8333262805
C                27.2055762652       35.9861458779       82.0430395806
C                26.4950069662       36.7444379531       83.1738097696
C                25.1812817234       35.9855745825       83.3248037848
H                26.3828533426       34.1343364893       81.2228062658
H                28.3035986372       36.0490989024       82.1231915171
H                26.9281037167       36.3776435169       81.0741949469
H                27.0739012316       36.6800127357       84.0936971595
H                26.3488251122       37.7890305092       82.9213296077
H                24.7488168544       36.1353755448       84.2923275838
H                24.4768610442       36.2641412493       82.5371885095
N                14.4438255350       31.9831938703       74.5698802439
C                14.8161209091       33.0328209083       75.4151791802
C                13.6284251809       33.8743772657       75.8116905357
O                13.6807150347       34.5835275769       76.9409739470
C                15.9536046619       33.9283242740       74.8178877164
O                17.0446454854       33.0353843799       74.5313872909
C                16.4390190777       35.0260312994       75.7396116068
H                14.5265692045       32.3636412876       73.5357261651
H                15.2778256866       32.6250119389       76.3402257349
H                15.5489470943       34.4449507913       73.9110827557
H                17.8966769902       33.5032274796       74.4672319363
H                17.3127860691       35.5879927364       75.3812046401
H                15.6687117666       35.7681404697       75.9314957131
H                16.7337336983       34.6335894829       76.7057644539
N                12.6468345436       33.9853138065       74.9960646614
C                11.4423719128       34.7318873644       75.2026234539
C                10.2853995218       33.7397652684       75.3649056758
O                10.1666314656       32.8619754281       74.6272679880
C                11.2280780523       35.7670633308       74.0379536278
C                11.6682627450       35.2513999166       72.7341853728
C                11.2212750693       36.1660324643       71.5882917919
C                11.5978459237       35.5448811036       70.1747985411
N                10.9402291402       36.2753201972       69.0370734171
H                12.6003879887       33.2805809882       74.2764453942
H                11.5669062570       35.3111256357       76.1604143662
H                10.1596393598       36.0021021993       74.0445227168
H                11.7727825505       36.6714775027       74.2879399225
H                12.7606268081       35.1598408932       72.7048721553
H                11.2433366217       34.2326987641       72.5713075487
H                10.1399993089       36.2779354371       71.6118417033
H                11.6663452828       37.1256682507       71.6811991023
H                12.6903379070       35.6465384624       70.0690253948
H                11.3349526284       34.5123293452       70.1162178179
H                11.3228767936       36.0193493902       68.1596380415
H                 9.9423365704       36.2510719049       69.1002441758
H                11.1589186851       37.3581060804       69.1645824138
N                10.8235540661       45.5321871921       83.2685581856
C                11.9163874518       46.3924873723       82.8572564558
C                11.3936279592       47.7037464950       82.2415575887
O                10.1893058404       48.0302393373       82.1941604181
C                12.7800732368       45.6432274313       81.8455796533
C                14.2229806283       46.1863294576       81.6008626725
O                15.1063087855       45.8452893509       82.4367140958
O                14.4737115771       46.8572202816       80.5607501750
H                10.5388686666       44.8572817088       82.5726337831
H                12.4978748621       46.6712314614       83.7329124496
H                12.8974990549       44.6163574399       82.2174437414
H                12.2595564770       45.6002369258       80.8815297321
N                12.3899277298       48.4637399719       81.7588178736
C                12.2030271461       49.7660708415       81.0994929474
C                11.3515591895       49.5076025088       79.8688768247
O                10.3565943460       50.1308717239       79.6176422839
C                13.5461418993       50.4385046886       80.6862299721
C                14.7516877553       50.0955003182       81.5800975707
C                14.5580367209       50.2461613408       83.1617252265
O                13.6363787822       50.9635907699       83.6212521027
O                15.4070288912       49.6155935817       83.8352718796
H                13.3449982800       48.2071250807       81.9496293564
H                11.6472373874       50.4206484378       81.7791430759
H                13.7797363594       50.1230951836       79.6814999324
H                13.3640974284       51.5016201745       80.7129121833
H                15.0801648224       49.0736197372       81.4204552286
H                15.5595865428       50.7641474262       81.3251616187
N                 9.6363988180       43.7030374152       78.7409012237
C                10.0217937861       42.3936685451       79.2199345498
C                10.2518425715       42.3870665724       80.7213011360
O                10.5906636698       43.4408043774       81.3470686237
C                11.3240545968       41.9671034579       78.5644454117
C                11.1826737135       41.6213327877       77.0989647277
C                10.2895768190       40.6556955700       76.6852711310
C                12.0016871252       42.2242822827       76.1578794529
C                10.2071722655       40.3006328513       75.3244871652
C                11.9151479489       41.8924363592       74.8316797953
C                11.0146672538       40.9117595634       74.3960363240
H                10.3921692128       44.3451506357       78.5467311606
H                 9.1999507576       41.6913103120       79.0146344746
H                12.0423787302       42.7661484183       78.6768803710
H                11.7126205962       41.0756672181       79.0884860533
H                 9.6788096256       40.1420790059       77.4100625487
H                12.6870232711       43.0022273585       76.4815564987
H                 9.5213067282       39.5350054109       75.0100204608
H                12.5199028383       42.4067044856       74.0921273296
H                10.9452763746       40.6727569827       73.3540195793
N                13.0011692483       40.4007563815       82.8938713497
C                14.2152063840       39.5979327889       82.6941448811
C                14.5440514033       38.7823607442       83.9878219881
O                14.4624699334       39.2589865792       85.0627640321
C                15.4415778803       40.4853898248       82.4025971055
C                15.4746010501       41.0897219636       80.9992293204
C                14.5730726111       42.0856289020       80.5795843053
C                16.4964996679       40.7121053975       80.1307040076
C                14.7160506597       42.7418213622       79.4046972049
C                16.6435705332       41.3360410507       78.9253157373
C                15.7859320145       42.3724143462       78.5560141754
O                15.9607400367       43.0671053971       77.3860020191
H                13.1274959537       41.2551889770       83.3952707429
H                14.0296454179       38.9015920353       81.8703881054
H                15.4379272991       41.2943935145       83.1369477849
H                16.3328161189       39.8924561336       82.5269677987
H                13.7769974468       42.4021158374       81.2532463860
H                17.1934475061       39.9525385460       80.4114035044
H                14.0864842121       43.5478538421       79.1125965557
H                17.4478992271       41.0417064106       78.2676302720
H                16.6815024579       42.6831947076       76.8725328859
H                27.8252274823       30.9531327637       75.1082696735
H                17.7488524346       49.0468285239       72.5062084411
H                15.0229794708       49.0782516488       68.6149796429
H                11.9483151230       46.8347532944       71.7900490773
H                 8.8048816817       45.0925555889       68.9432478685
H                 8.0334118966       43.7980895052       71.9233525340
H                11.4408451945       37.6629577809       79.0058314189
H                14.2761448663       35.1463229186       79.9971427728
H                17.0335298544       34.6301438916       80.2418738870
H                20.3550345855       32.6393248431       81.1708454456
H                24.8336787948       34.3445583684       82.6974975670
H                28.0316779721       33.5085812202       83.6309413012
H                14.9953769277       31.2837434150       74.6985663806
H                 9.6308195917       33.8529301805       76.1123806371
H                11.0658708792       45.0677819910       84.0004122498
H                11.6114174988       48.7899305636       79.2227958404
H                 9.1777189912       43.6183329882       77.9712012974
H                10.1373080273       41.5404095793       81.2409681200
H                12.6545841601       40.6253448368       82.0942221751
H                14.8332317782       37.8277058810       83.9170490916
