 168 
 
N                -5.3659119999       91.3919014591        8.4928759192
C                -5.7696121816       91.4854936412        7.1250109203
C                -6.3873382813       90.1777124892        6.6015013714
O                -6.7877410881       90.0787283797        5.4459478349
C                -4.6228573827       91.9639403117        6.2367417395
C                -5.1685732153       92.9136481036        5.1634905107
C                -5.7322554660       94.2069081012        5.7464189281
O                -6.9202900059       94.3658396800        5.9785270762
N                -4.8310948968       95.1760130993        5.9673934918
H                -4.3687309625       91.3443154470        8.6947766996
H                -6.5872509893       92.2139051360        7.0725198801
H                -3.8749584258       92.4571436694        6.8569630016
H                -4.1506435264       91.1009550103        5.7426004928
H                -4.3861555919       93.1453282447        4.4440286300
H                -5.9850304022       92.3962271825        4.6490139035
H                -3.8570336265       95.0518660408        5.7346024667
H                -5.1351618856       96.0572501175        6.3517618307
N                -9.9491591542       89.7084923020        7.5040918879
C               -10.5976763340       90.1050666722        6.2671175008
C               -11.4356349862       89.0212637558        5.5339740598
O               -12.5507217063       89.2953631018        5.3180421699
C                -9.6617149056       90.9207437859        5.3490296389
C                -9.1193359079       90.2857402313        4.0522963456
C                -9.7426417571       90.7996548062        2.7216955450
O                -9.5866538095       92.0209969719        2.4787875273
O               -10.2469793309       90.0034422578        1.9603047533
H                -9.0894082548       90.1968944761        7.7947014068
H               -11.4045636160       90.7939290242        6.5682033430
H               -10.1949974729       91.8343404738        5.0576812451
H                -8.8094374611       91.2600684842        5.9691579253
H                -8.0584339517       90.5753464384        3.9611078630
H                -9.1676092094       89.2150158985        4.0889722923
N               -10.7527812444       93.8690121310       -1.6191266939
C                -9.5579420905       94.1486615603       -0.7716599308
C                -8.6752222136       95.1178140178       -1.6064921325
O                -8.8097702328       95.0890483044       -2.8041424118
C                -8.8190360477       92.7981805718       -0.5157695670
O                -7.6711680624       92.9587111688        0.2567616218
H               -11.1062450957       92.9028130716       -1.4566632772
H               -11.5087515023       94.5340252950       -1.4433542826
H               -10.4146348652       94.0036934401       -2.6112940275
H                -9.8355121663       94.5751828413        0.1883061113
H                -9.5144122009       92.1181899346       -0.0114153728
H                -8.5102121199       92.3620095140       -1.4762164014
H                -7.9407750620       92.8806661934        1.1765263100
N                -7.8312970331       95.9451601421       -0.9472570920
C                -6.7748161493       96.5612021705       -1.7642182999
C                -5.8850786415       95.3693367551       -2.2553837633
O                -5.7917621263       95.0250722036       -3.3794562531
C                -5.8623193132       97.6268598121       -1.1192087144
C                -6.3253253273       98.5111632134        0.0529621035
C                -5.1518256823       98.5699952746        1.0961461254
O                -4.7866325030       97.4791059674        1.5629569968
O                -4.6631134360       99.6921379500        1.3435130079
H                -7.6875322934       95.8394375619        0.0346801871
H                -7.2799997853       96.9808037242       -2.6421295803
H                -4.9647002129       97.1294472259       -0.7488576418
H                -5.5373008040       98.2776565545       -1.9295427754
H                -6.5464605953       99.5275848227       -0.2700287822
H                -7.2058106841       98.1136148700        0.5564805274
N                -5.3259672739       94.7493362375       -1.2028643164
C                -4.3251380469       93.6926034176       -1.2083694131
C                -4.8568509641       92.3567771050       -1.7567074221
O                -4.7645232543       92.0815872501       -2.9426205436
C                -3.7933056292       93.5926431458        0.2148930316
H                -5.4033040184       95.2144897629       -0.2977728065
H                -3.5071416874       93.9781920859       -1.8975274033
H                -3.0550189705       92.8154024207        0.3167828665
H                -3.3133357319       94.5468568878        0.4985648386
H                -4.6033978497       93.4250009059        0.9181350454
N                -5.3899161817       91.4662874786       -0.9103945051
C                -5.5863487293       90.0931273947       -1.3104495395
C                -6.2725087721       89.9280218845       -2.6598329134
O                -6.1274105840       88.8863116580       -3.2786808833
C                -6.4149430383       89.2454731830       -0.3399247901
C                -5.9334909669       89.0219147065        1.1026205558
C                -6.7375404077       87.8534261135        1.6948730286
C                -4.4449711590       88.7159338899        1.2749553962
H                -5.6022016189       91.7370195099        0.0345658869
H                -4.6204150014       89.6197694709       -1.4173452330
H                -7.4404437210       89.6543886109       -0.2721127441
H                -6.5059837101       88.2657524169       -0.8280030781
H                -6.1915117579       89.9077063525        1.6954779735
H                -6.4988905837       87.7224585829        2.7450056271
H                -7.8115891911       88.0345132446        1.6213875936
H                -6.5097769984       86.9263172940        1.1725744926
H                -4.2583882733       88.5596825992        2.3534342612
H                -4.1787095085       87.8154917273        0.7584636182
H                -3.8442801351       89.5404842403        0.9488325836
N                -7.1446908313       90.8455917700       -3.0943881535
C                -7.9971450765       90.5168584903       -4.2258258828
C                -7.2157715154       90.2722657057       -5.5325054191
O                -7.7095970751       89.6660028058       -6.4858383484
C                -9.0915054036       91.5734063331       -4.4103020068
C               -10.4373260431       90.9700594562       -4.8523975743
C               -11.2288001254       90.2470645561       -3.7461066847
C               -12.3250425872       89.3445953967       -4.3123647568
N               -13.4189071804       90.1377080265       -4.9489517860
H                -7.0615694845       91.8231084196       -2.8280433524
H                -8.4565544747       89.5554284063       -4.0010565521
H                -9.2083454702       92.1154271271       -3.4671712188
H                -8.7598635467       92.3086892698       -5.1533458973
H               -11.0187016034       91.7924663147       -5.2678506911
H               -10.2083281054       90.2830754563       -5.6649008071
H               -10.5492988905       89.6246731953       -3.1627252386
H               -11.6605718546       90.9917857491       -3.0622187590
H               -11.8928785840       88.7027154515       -5.0732369808
H               -12.7538680588       88.7355511115       -3.5120617283
H               -14.1301892791       89.5233232608       -5.3715859505
H               -13.8876012269       90.7488634143       -4.2501658653
H               -13.0358536833       90.7364122449       -5.6809411390
N                -5.9695748305       90.7693397627       -5.4984496314
C                -4.9637948595       90.7721553569       -6.5399627348
C                -4.2715240891       89.4009512706       -6.6466996007
O                -3.9113377136       88.8644652035       -7.6806439952
C                -3.9841506981       91.9582168993       -6.2125721985
C                -2.9410948912       91.5743220095       -5.1661238474
C                -4.8023095804       93.1905695747       -5.7895737960
C                -1.8673517255       92.6158831802       -4.8500001461
H                -5.6879419148       91.2537799914       -4.6695594317
H                -5.4539213565       90.9686587887       -7.5254511039
H                -3.4748533591       92.1901047572       -7.1401977405
H                -3.4459479366       91.3695723091       -4.2257279304
H                -2.4189505144       90.6714605797       -5.4887123899
H                -4.2281171527       94.0944678335       -5.9628472319
H                -5.7352133329       93.2749393411       -6.3725739813
H                -5.0607564420       93.1698015011       -4.7235907954
H                -1.1168988282       92.1882149759       -4.1390621535
H                -1.3064029165       92.9113545402       -5.7282483994
H                -2.2728757658       93.5016307920       -4.3661015371
N                -4.1028258142       88.8407400796       -5.4354446879
C                -3.5078495709       87.5496875180       -5.1683977146
C                -4.5046239502       86.4219498322       -5.4383000551
O                -4.3902328385       85.3097579959       -4.9685359848
C                -3.0890489967       87.4622691248       -3.6992510772
C                -1.8785549475       88.2575481020       -3.1902131140
C                -2.2515857594       89.6236124863       -2.6233101469
C                -1.1762470565       87.4979216710       -2.0948491101
H                -4.6267035710       89.2032167227       -4.6667872404
H                -2.6566849923       87.3964406190       -5.8672897792
H                -3.9821136528       87.7447089886       -3.1465080461
H                -2.8934291386       86.4081214039       -3.5402509635
H                -1.1805158670       88.3852358232       -4.0445622332
H                -1.4558011101       90.3662654191       -2.8480115538
H                -3.1701986090       90.0192427608       -3.0643994606
H                -2.3545744030       89.5763657169       -1.5674356681
H                -0.3141375131       88.0621643063       -1.7545749004
H                -1.8419027070       87.3341736101       -1.2467886963
H                -0.8269349734       86.5133612144       -2.4331086270
N                -5.5649321894       86.7367695374       -6.2162834390
C                -6.4170772630       85.6547821255       -6.6442939025
C                -5.9694179464       85.1381785552       -7.9989435616
O                -6.4524724042       84.1179768736       -8.4806182670
C                -7.9113463160       85.9898348674       -6.5679392868
C                -8.6455370266       84.7362923986       -6.1002314344
O                -9.2038568959       83.9742221972       -6.8572912904
N                -8.5631872610       84.5208033770       -4.7745843084
H                -5.7383365549       87.6551259265       -6.5921161415
H                -6.2060507162       84.8273800630       -5.9534437731
H                -8.0524812987       86.8214576090       -5.8584952058
H                -8.2949640012       86.2825465437       -7.5441547091
H                -9.0086479307       83.7054517474       -4.3926448598
H                -8.0691887502       85.1498185284       -4.1465098354
H                -5.6612831110       92.1129280334        8.9432941536
H                -6.4690623934       89.3859273025        7.2068090515
H               -10.5180809679       89.8236210926        8.1918951530
H               -11.0134877694       88.1519563106        5.2768820665
H                -5.2691626257       85.6309336625       -8.5155041971
