 211 
 
N                64.1103865839       89.1346357054       99.7763465912
C                65.0988997966       88.5790489119      100.6759583255
C                64.7553593475       88.8429995769      102.1234880307
O                64.5098841258       89.9736214823      102.5166094350
C                66.3945908765       88.8902458789      100.3483332750
C                66.8782487009       88.6046848572       98.9411861710
O                66.5554908775       87.4482918816       98.4674287225
O                67.5285725835       89.5451925004       98.3128978542
H                64.2500823246       90.0623108087       99.6457612983
H                64.9825780261       87.4950178713      100.5200329954
H                66.5822936840       89.9654957985      100.5163379772
H                67.1352969630       88.4674484514      101.0267507353
N                65.5957660453       88.2263488836      106.4847405456
C                66.3662784130       87.9016676454      107.4560342582
C                65.5939415180       88.0403474173      108.7879958279
O                64.6969532355       88.9129313158      108.9102937425
C                67.6432422276       88.6382073949      107.5307326211
C                67.3891451968       90.0015905189      107.6974689875
C                68.5900752557       88.1351017764      108.5294759609
H                64.9752605075       88.9922146676      106.6311204704
H                66.6452553278       86.8482358245      107.3985807294
H                68.1625121449       88.5274609693      106.5864668704
H                68.2732999824       90.6370445467      107.7068998113
H                66.7623562312       90.4248996741      106.9456412848
H                66.9046391241       90.2109125083      108.6310645847
H                69.5264400467       88.6605942952      108.5522310342
H                68.1913977786       88.2030026944      109.5088581799
H                68.8499231442       87.1042531215      108.3822066030
N                65.5198156213       92.1182563188      103.9599553730
C                67.0129701038       92.5366078157      104.0980124724
C                67.2142274366       94.1037198647      103.7081508419
O                67.8181460469       94.8120120131      104.4702760130
C                67.9188492814       91.6779727429      103.2918576943
C                68.1426086668       90.3355915165      103.9412397708
C                68.8997472946       89.3651734731      103.0217461431
O                69.5263139289       89.7605761355      102.0085980350
N                68.8702218640       88.0855059051      103.4011810552
H                65.4864124205       91.5652978070      103.4443844846
H                67.2773200125       92.5200501365      105.0770870289
H                67.5102731302       91.5130281514      102.4655130069
H                68.7436825634       92.1185417506      103.0972476142
H                68.6858100780       90.4903228843      104.7468623991
H                67.3282207750       89.9510381170      104.2176835207
H                68.4140290825       87.8432360800      104.1124712348
H                69.2204082893       87.4574967364      103.0319622772
N                66.4897993447       96.7365030048      106.2794149956
C                67.3892537111       96.6401124787      107.3795732295
C                68.8117892414       97.0188723291      107.0537385511
O                69.7434134876       97.0153628222      107.7048447717
C                67.2276484147       95.3538727682      108.2099073412
C                68.2157921700       95.0804474792      109.0416455554
C                65.9224972197       95.4247825255      108.9332567287
H                66.6231064543       96.0679667441      105.6373523214
H                67.2383997102       97.3593612075      107.9147085940
H                67.2217563466       94.4983912828      107.3585074358
H                68.0996095580       94.2672204640      109.5466811930
H                69.1136239664       94.9682532180      108.5433014752
H                68.2996959271       95.7791264697      109.7345324752
H                65.8495562733       94.5485887091      109.3433886787
H                65.9393787347       96.1505511627      109.5497883748
H                65.1723539550       95.4706968497      108.2946702910
N                69.1153215905       96.9108423231      105.6326541626
C                70.3656808664       97.2846412971      105.1139727635
C                71.4732864490       96.4425252276      105.4298326382
O                72.4022273645       96.7419686499      106.0863743683
H                68.4718870752       96.6494624440      104.9640494887
H                70.2829558112       97.4810732653      104.0557332488
H                70.5834573599       98.2992919671      105.4909379040
N                71.3325195434       95.1834192284      104.9474431162
C                72.1131718075       94.0292905267      105.2452143051
C                72.2097097218       93.2111104964      104.0297490528
O                71.2585462373       93.0466932838      103.2877244665
C                71.5937144155       93.2002640394      106.4382262782
C                70.2003879245       92.9682953836      106.3387691467
C                72.3369520486       92.0262450193      106.6517934773
H                70.6091787329       94.9655903675      104.3364615856
H                73.0882067298       94.3893490984      105.5581333742
H                71.7402230377       93.8283809116      107.3181586364
H                69.7855111120       92.4037853894      107.1447870353
H                69.5905582732       93.8474378810      106.2586804376
H                69.9622165372       92.3933829645      105.4477038376
H                71.9966208456       91.4351265175      107.4756768638
H                72.2947870835       91.3703536675      105.7985975668
H                73.3889288971       92.1758366519      106.8310188603
N                73.4594124133       92.7054005315      103.7215419897
C                73.7218937797       92.0414716693      102.4738689257
C                73.6421351448       90.5815699761      102.6165491141
O                74.0128613347       90.0638962140      103.7165344960
C                74.9965323363       92.4066173220      101.8490211172
O                75.5210061232       91.4548996585      101.0748511839
H                74.1881650736       92.7865834182      104.2908258214
H                72.9229620817       92.3693275945      101.8127239379
H                74.8988970497       93.3258055539      101.2439988514
H                75.6857476638       92.7591104433      102.6149661010
H                76.1146868904       90.9281422658      101.6299644483
N                73.2054612743       89.8886582242      101.5670334754
C                73.0928088659       88.4203870972      101.6361462251
C                74.1017420860       87.6228031506      102.4396302233
O                73.7329800066       86.7140030786      103.1973062616
C                72.8902826113       88.0549779200      100.2439835832
C                72.2524435973       89.1534653665       99.6124341991
C                72.6686967983       90.3395481674      100.3482398816
H                72.1939481341       88.1883925021      102.2554830976
H                73.8699586343       87.8481535999       99.7872497179
H                72.4015245455       87.0999238304      100.0981085843
H                72.4365963955       89.2118347734       98.5610507577
H                71.1772009879       89.0228352199       99.6490040272
H                73.3757228684       90.9225022809       99.7752340122
H                71.8655970688       91.0407856181      100.4963896743
N                75.3907899712       87.8885154840      102.3625101628
C                76.3528018164       87.1678364470      103.1148792160
C                76.5659552807       87.6484886547      104.5126683256
O                77.0208693154       86.9367539475      105.4167862646
C                77.6454587274       86.9012574964      102.4401578178
C                78.6239156124       87.9692303633      102.3387029379
C                78.1577886178       89.3374736937      101.7761124269
O                76.9953361289       89.3219001728      101.1686568886
O                78.9021785095       90.3595457010      101.9045149297
H                75.7852636661       88.5975511678      101.8127682293
H                75.8447567150       86.1818528823      103.2444100776
H                78.1151248319       86.0361703414      102.8801943550
H                77.4392547837       86.5612745062      101.4362463849
H                79.0651805627       88.1573263592      103.2998478038
H                79.4883805758       87.6756645042      101.7490301934
N                76.2379352326       88.9300466184      104.8120701716
C                76.0208771254       89.3622354084      106.1245565611
C                74.9597255480       88.6098571923      106.8890343961
O                74.8924166184       88.5192726906      108.0627601842
C                75.8607165034       90.8299089280      106.2430684400
C                76.8528858585       91.7651746235      105.8640281755
S                76.5174753971       93.3953385054      106.5042575743
C                76.0221729853       94.2164543536      105.0004969981
H                76.1195418697       89.5758544135      104.1374125091
H                76.9706580040       89.1310468267      106.6527514243
H                74.9564662778       91.0809217946      105.6975195124
H                75.5684164831       91.0883478042      107.2597085179
H                77.8221707648       91.4189168488      106.1947393177
H                76.9782834824       91.7771667972      104.7893909491
H                75.7548427237       95.2287502315      105.2003332831
H                76.7930164341       94.2374837455      104.2826471621
H                75.1883364068       93.7573403639      104.5679209654
N                73.9717137513       88.0887237219      106.0970659630
C                72.8417612007       87.3989122823      106.5132700764
C                73.0786269355       85.9102491045      106.7334559917
O                72.7304486015       85.3531247196      107.7111587569
C                71.7278866622       87.6772311920      105.7120099518
H                74.0313120670       88.1544875723      105.1174968805
H                72.6367781217       87.7785925017      107.5140893124
H                70.8076535382       87.1747228410      106.0266548226
H                71.4573757642       88.6988680139      105.6151583312
H                71.8606835159       87.3209094903      104.6919987344
N                73.7083311053       85.2439974389      105.7707467353
C                74.0357685303       83.8967818801      105.8770735729
C                75.1444316626       83.5659962259      106.8503631636
O                75.2013547728       82.5263334782      107.4600821371
C                74.2074255851       83.1908108636      104.5708745229
C                73.0668643077       82.7896538379      103.8247650428
C                73.1084792927       82.9382976200      102.3251024915
O                74.2548681851       82.9631848195      101.8321596224
O                72.0361321233       83.0448869765      101.6777251732
H                73.9906911512       85.6554220839      104.9458724135
H                73.1469384453       83.4384022051      106.3350396498
H                74.7990249363       83.8458617091      103.9503857609
H                74.8714996139       82.3511971175      104.7044804079
H                72.8011420365       81.7675132202      104.0595907229
H                72.2041181778       83.3276414365      104.1938288689
N                76.1279158709       84.5245479652      107.0014214475
C                77.3334593803       84.2907299639      107.6340179104
C                77.3970805390       84.6808941947      109.0904779685
O                77.8670188632       83.9421253378      109.9361499487
C                78.4672734579       84.7158794419      106.8114186632
C                78.6139495077       84.1003680049      105.5028846583
O                77.7445169987       83.9785229586      104.7237264878
N                79.8157034803       83.5864513162      105.2383117390
H                76.0169373039       85.4058237463      106.6615300300
H                77.3879047376       83.1771475249      107.6926285380
H                78.3993621167       85.7825386239      106.7062438582
H                79.3975172111       84.6327167319      107.4086708267
H                80.0239175900       83.0960434535      104.3979610932
H                80.5914215636       83.6547259374      105.8582244524
N                72.3099627620       88.3855780471      113.3751673132
C                71.5348332958       89.6021102488      113.1496477351
C                70.7295240750       89.9785505718      114.3903781766
O                69.6038999516       89.2806667958      114.6316883023
C                70.8232667386       89.8658537091      111.8087126711
C                69.8737179706       90.9531745383      111.8355588076
C                70.5566336281       92.2155754329      111.3930789222
C                68.6145536168       91.0636897096      112.2874090947
C                69.8591333230       93.4302630297      111.4197548929
C                67.9117677130       92.2617653954      112.3157248447
C                68.5475206610       93.3762371847      111.8928744502
O                67.9424824733       94.6311071186      111.8705043769
H                71.7133563767       87.6907114166      113.6970229878
H                72.3464938885       90.3396548421      113.0440762681
H                71.2441255840       89.6416820847      111.1162649757
H                70.1803146991       88.9827137887      111.8120890140
H                71.3120994978       92.0496798247      111.1915908570
H                68.2758098482       90.3559124146      112.5879789997
H                70.2784851878       94.1749246200      111.1305299769
H                67.0196684162       92.2501265944      112.6173182651
H                67.1356202811       94.5044861847      112.1767618149
H                64.1638906442       88.7210914421       98.9787762446
H                64.7262506505       88.0862042631      102.7764915045
H                66.0930265640       88.4540612671      105.7699825118
H                65.8072665714       87.4352203817      109.5550119244
H                65.2148333088       91.8265025610      104.7548550735
H                66.8394960777       94.4579167445      102.8513422407
H                65.6432236338       96.6646430634      106.5763084353
H                77.0467534978       85.5697591752      109.3857575150
H                72.6926277987       88.1257240990      112.6031288457
H                71.0446929507       90.7175522728      114.9858150462
