 264 
 
N                19.7357484017       19.0386788020       18.0432012677
C                18.7755857046       18.8051047888       19.1299172800
C                19.4151280862       17.9632334464       20.2526466300
O                18.7231845692       17.3304535551       21.0555224692
C                17.5088438259       18.1023315978       18.6038919255
C                16.6708421808       18.9495383781       17.6950913433
C                16.0434269394       20.0845977091       18.1957437329
C                16.5858646941       18.6873312314       16.3313819816
C                15.2935643069       20.9296187199       17.3997486949
C                15.7024250198       19.4343934846       15.5593693382
C                15.0554894957       20.5531387604       16.0788146933
O                14.2582688708       21.3629994117       15.3462332576
H                19.8368721781       18.3035305778       17.3544608130
H                18.5295820264       19.7841027077       19.5556632755
H                17.8206474017       17.1944287462       18.0814641317
H                16.9297891071       17.8075140251       19.4817231774
H                16.1781600821       20.3351233090       19.2376391497
H                17.1299068959       17.8620317310       15.8999760858
H                14.8637717135       21.8278472126       17.8072535469
H                15.5941499740       19.1852258334       14.5144622914
H                14.0860994480       20.9850685565       14.4696702152
N                20.7339298634       18.1020121114       20.3999725481
C                21.4481090303       17.3341173413       21.3971709708
C                20.8267058696       17.5484305128       22.8017313426
O                20.7957666386       16.6053585271       23.5877127952
C                22.9011169922       17.7365375817       21.4866160067
H                21.3057101809       18.5974610897       19.7259498660
H                21.3474756702       16.2627073737       21.1823740624
H                23.4257101003       17.0509030513       22.1456672596
H                23.3601058545       17.7045415541       20.5026204155
H                22.9881828517       18.7446669529       21.8847617746
N                20.3731368314       18.7541568837       23.1145368817
C                19.8814429365       18.9998337895       24.4489042627
C                18.5973327810       18.2343294786       24.7211945667
O                18.1640813348       18.0978264027       25.8613803418
C                19.6816978297       20.4883505004       24.7370200044
C                21.0046293713       21.3143203065       24.7649680208
O                22.0844323328       20.7346796195       24.9797521679
O                20.8626058986       22.5413108887       24.5440938889
H                20.4229615402       19.5324698155       22.4648378637
H                20.6176922201       18.6119024653       25.1685612739
H                19.0059496006       20.9237873297       24.0025763698
H                19.2422299979       20.5734132516       25.7326911770
N                17.9482776963       17.7731896756       23.6557567860
C                16.6935440114       17.0209696457       23.7747259302
C                16.8660638783       15.5219212680       23.5418787788
O                15.8893728025       14.7767087517       23.4038870019
C                15.6721166983       17.5393467533       22.7755084143
C                15.4196631287       19.0500973830       22.8822991836
C                14.4105109740       19.4543773623       21.8054041870
C                14.9261068866       19.4380266369       24.2753921102
H                18.3575593544       17.7864942083       22.7282283902
H                16.3586209990       17.1563159194       24.8092338726
H                16.0499099918       17.3119013111       21.7760174255
H                14.7436549591       16.9859735233       22.9224574552
H                16.3632126854       19.5671728425       22.6868545426
H                14.3201362932       20.5363548056       21.7621966601
H                14.7331755963       19.1029384921       20.8292695619
H                13.4360298401       19.0283027767       22.0252206111
H                14.6593424419       20.4907654021       24.2820958088
H                14.0557655389       18.8445206696       24.5400324183
H                15.7062071244       19.2777032130       25.0152227544
N                18.1125062170       15.0288540083       23.5192683668
C                18.3025057717       13.6570069674       23.1312423977
C                17.7313216212       12.6308149990       24.1033838372
O                17.4769241531       11.4992849349       23.7106504362
C                19.7890359780       13.3144577976       22.9466876398
O                20.3901544162       13.4435005762       24.1951944312
H                18.9363324328       15.6014897272       23.6470028938
H                17.7862432143       13.4707290943       22.1780229766
H                19.8585768266       12.2846226483       22.5623507628
H                20.2272982366       13.9959826283       22.2031984838
H                21.3168063950       13.7440750847       24.1323399386
N                17.4099189750       13.0633761176       25.3476719449
C                16.8462830187       12.0840660939       26.2825596679
C                15.3274643659       12.1321768501       26.2546133823
O                14.6484467854       11.3930900142       26.9593684821
C                17.2701966271       12.3419678513       27.7337803896
C                18.7926498543       12.6227804003       28.1070093814
O                18.9006661166       13.4188101880       29.0811454469
O                19.7103556166       12.0752677909       27.5175478980
H                18.0231076455       13.7604132693       25.7403860204
H                17.1730915978       11.0831768559       25.9749413457
H                16.7200617742       13.2060676587       28.1181324783
H                16.9865266219       11.4676156049       28.3243447219
N                14.6876368637       13.0459219287       25.4866564332
C                13.2445508072       13.0764316798       25.4902629076
C                12.5705057991       11.9402786987       24.6916035413
O                13.0564865354       11.4864083953       23.6530786720
C                12.7332177959       14.3678975179       24.8259586326
C                13.2052220849       15.6260698821       25.5428057286
C                12.5963443624       15.7727430356       26.9280983470
C                12.9759641065       17.1177164002       27.5265571102
N                12.5554373235       17.2091442652       28.9454481681
H                15.1800748563       13.5525938114       24.7567677457
H                12.9406479624       12.9990107976       26.5361278695
H                13.1077519821       14.3784037832       23.8004590481
H                11.6442994170       14.3513291539       24.7941898942
H                14.2932034912       15.6121974123       25.6099130931
H                12.9178462863       16.4787007572       24.9263508352
H                11.5119222454       15.6838244176       26.8561319981
H                12.9720576730       14.9738175260       27.5683767033
H                14.0594251171       17.2433523323       27.4890522618
H                12.5061939896       17.9276978222       26.9695608193
H                12.9303834548       18.1198932983       29.3576564013
H                11.5360467860       17.1834541202       29.0684901424
H                12.9622995011       16.4405274239       29.4883353927
N                10.1788007061       12.0826642099       22.5627333995
C                 9.8780798859       12.5103754723       21.2215893590
C                11.1292338181       12.6886820053       20.3340746017
O                10.9818865441       13.1517195486       19.2049310062
C                 9.0827405021       13.8161534925       21.2641571594
C                 9.7727733712       14.9760311697       21.9052785894
C                10.7189823428       15.7135197655       21.1997709309
C                 9.4536710865       15.3689407701       23.1991843124
C                11.3047177376       16.8289526200       21.7592498849
C                10.0654095577       16.4811621500       23.7646554434
C                10.9894202284       17.2119790472       23.0542703235
H                10.3086083632       12.8055404568       23.2561076688
H                 9.2706765422       11.7390635022       20.7357895484
H                 8.8454636697       14.0754729632       20.2294325967
H                 8.1410300028       13.6180120735       21.7813815089
H                10.9677346052       15.4268138118       20.1894205773
H                 8.7019746909       14.8274381748       23.7549051109
H                12.0231233845       17.3943462944       21.1842617385
H                 9.7894581965       16.7807720496       24.7640031671
H                11.4424931657       18.0934294892       23.4813323154
N                12.3314117260       12.4327960159       20.8354237616
C                13.5227036586       12.8024780669       20.0884732760
C                13.6201081316       12.0535633178       18.7684972231
O                13.9088285290       12.6680499932       17.7392447503
C                14.7704106792       12.5235913443       20.9194507295
C                16.0655584473       12.8111189094       20.2062464012
C                16.4828122600       14.1261323458       20.0033802686
C                16.9275259664       11.7919885889       19.8501715448
C                17.7809197355       14.3707354033       19.6011811838
C                18.1616252650       12.0424386133       19.2884390533
C                18.6163704409       13.3537185874       19.2078009476
H                12.4789362684       12.0271622999       21.7552130091
H                13.4599375385       13.8684210281       19.8308270265
H                14.7369511596       13.1385011584       21.8230873897
H                14.7559710301       11.4753873374       21.2197372051
H                15.8379410129       14.9476946553       20.2784119786
H                16.6202179577       10.7684665708       20.0039508675
H                18.1328446380       15.3918431282       19.5613324315
H                18.8060674184       11.2316070855       18.9873317654
H                19.6188628214       13.5596528323       18.8657226964
N                17.5110796968       30.1222690071       20.3864316587
C                16.8671146976       30.6577241383       21.5774308332
C                17.7794050503       31.5323542499       22.4249717005
O                17.2970648966       32.1874569859       23.3435953841
C                16.3239075503       29.5291338546       22.4940760785
C                17.3838175484       28.5276451730       23.0260678877
O                18.6014381069       28.7793039850       22.8647909012
O                16.9367983906       27.5203854143       23.6131008884
H                17.9480071923       29.2095100513       20.4374969487
H                16.0414419893       31.2944416308       21.2425348554
H                15.8621532735       29.9940483381       23.3645637277
H                15.5854968453       28.9382140266       21.9554463247
N                23.5088855197       29.9338289692       21.8655575347
C                23.0203110302       28.8232492283       21.0945674434
C                23.0874544318       29.1474677285       19.5931364670
O                23.3352521178       28.2560313630       18.7691796953
C                21.6551517307       28.3526175526       21.5435118916
C                21.8182823248       27.4361630950       22.7906973917
O                22.8856658173       26.8708024210       23.0034154677
N                20.7099112162       27.2591520037       23.4923188227
H                22.8887864950       30.3897723324       22.5259830728
H                23.7111674366       27.9747861755       21.2413390819
H                21.0088662156       29.1855876325       21.8120316860
H                21.1792635596       27.7658038590       20.7556224110
H                20.8289848221       26.9221098044       24.4377274907
H                19.8887006643       27.8671092550       23.3173733511
O                13.7827709390       19.4273050805       29.7666721037
H                14.7146223436       19.0624727197       29.7343940562
H                13.7423398169       20.1577295209       29.1416838158
O                17.8061031020       19.8054390306       28.0483516784
H                18.6809157616       19.8875676337       28.4694798180
H                17.5709543488       20.6899898777       27.7241792393
O                20.1983475063       21.0348382299       21.5064043758
H                20.6136028227       21.7771949369       21.9549562600
H                20.2524730665       21.2108522261       20.5460555074
O                21.3910887584       15.6018333549       26.9185978907
H                21.5453480319       16.5403909782       26.7543227705
H                20.5289753102       15.4974058529       27.3230122742
O                19.4771788040       25.3858130255       25.7904996023
H                19.8999214658       24.6695020411       25.2991205389
H                18.9216388549       25.8801799243       25.1761498505
O                23.0781154889       18.2198545470       25.6419411066
H                24.0325474646       18.2866814730       25.7173962180
H                22.7646880385       19.1165058623       25.4169054033
O                16.1640587528       18.3602876899       29.5950898605
H                16.5779463905       18.1652026257       30.4548405740
H                16.8235082769       18.8271787456       29.0577834940
O                16.9866790936       22.5601559668       24.1423922150
H                17.8933937688       22.8656315875       24.2414490786
H                16.4458946285       23.3414080909       23.9769219433
O                17.3780596065       21.6732842174       21.4670478455
H                18.3247489903       21.4808967415       21.4361573590
H                17.1669492263       21.8610763777       22.3977796329
O                16.8545585033       22.0917465779       26.9676283486
H                16.9133859799       22.0359625607       25.9972108887
H                15.9194473332       22.0004561374       27.1823377201
O                20.9470193903       27.1921051328       27.1625110098
H                22.1765788600       27.0197280496       27.1441862382
H                20.6420883249       26.3894548623       26.7380670516
O                18.0171024198       24.2574258983       27.9606915263
H                17.6468765558       23.4381086770       27.5795428499
H                18.6145621552       24.6302642300       27.3009100832
O                14.8615545756       25.4981492533       28.8599169643
H                14.0625578428       24.9582966529       28.9596642605
H                15.1049425133       25.5168797485       27.9260880204
N                17.4527310808       28.9528550053       31.0428257481
C                17.1610327794       27.7387324787       30.2922373252
C                17.4575431792       26.5286734718       31.1505178623
O                18.1560267060       26.6357100003       32.1621622935
C                18.0151858799       27.6448426885       29.0142768210
O                19.3453405492       27.3533280766       29.3644364465
H                18.2008393809       28.8863618997       31.7170006796
H                16.1107436661       27.7834370289       29.9937601427
H                17.6113468700       26.8461032479       28.3772911923
H                17.9600760860       28.6023103899       28.4804056168
H                19.9284683241       27.3486436088       28.5469784793
N                16.9177712343       25.3480655570       30.7620500698
C                17.2096440557       24.1604309429       31.5786709257
C                18.7060895503       23.8726475693       31.6396440948
O                19.2582231996       23.5326846214       32.6951360113
C                16.3906524192       22.9871119234       31.0018200760
C                16.9617234888       21.6390033767       31.4172972293
C                14.9192737328       23.1419474838       31.4050939076
H                16.3136897584       25.2760297169       29.9423856733
H                16.9145571223       24.3451774508       32.6178837189
H                16.4733858314       23.0675811649       29.9117333060
H                16.2926847105       20.8420991265       31.1076055226
H                17.9336084688       21.4841851541       30.9546354212
H                17.0719453010       21.6234363820       32.4986755512
H                14.3224345860       22.3520594863       30.9614557655
H                14.8239131674       23.0665701941       32.4861299710
H                14.5324292230       24.1072497160       31.1002279105
N                19.4001538886       23.9629398430       30.4688570324
C                20.8106200155       23.6657331140       30.4860373199
C                21.6163210501       24.6925985955       31.3017578123
O                22.5447291714       24.3155979616       32.0332827366
C                21.3991906312       23.5047860887       29.0810491981
C                20.7685709000       22.2917887860       28.3916973925
C                21.0961525136       20.9524401793       29.0743282860
O                22.2584454731       20.7730714562       29.4856431169
O                20.1589856758       20.1446342751       29.3085239935
H                18.9337314221       24.2100562973       29.5973511204
H                20.9457037541       22.7087762553       31.0167335377
H                21.2408915859       24.4138947474       28.4955764659
H                22.4745196145       23.3474837236       29.1669510059
H                19.6846905087       22.4042576964       28.3460655821
H                21.1440052720       22.2303392459       27.3637747471
H                19.4936268649       19.7718686830       17.5808055931
H                11.7092184636       11.5463175217       25.0125065122
H                 9.5075478897       11.5690036152       22.8718813412
H                13.4504077121       11.0685149593       18.7388071731
H                16.9052319905       30.0477991147       19.7250673174
H                18.7596281973       31.5683950101       22.2303858695
H                24.2096658255       29.6683798795       22.3639988490
H                22.9306230544       30.0828207513       19.2760897167
H                17.6871354850       29.6091281576       30.4732995198
H                21.3917577994       25.6652588816       31.2425690094
