 379 
 
N                 7.3201026238       30.3473839435      -10.2964057682
C                 7.7123989870       29.0129196910       -9.8431269719
C                 6.9584578368       28.7992434895       -8.4561450436
O                 6.4069181111       29.7031673468       -7.8444883936
C                 9.2181275540       28.9499878794       -9.6375574601
H                 7.2395123815       30.9466462552       -9.4994953181
H                 7.5326358350       28.1370567380      -10.5017967184
H                 9.4883541374       27.9486081140       -9.2288648950
H                 9.7131123537       29.1719030665      -10.5743159385
H                 9.4021775773       29.7180164354       -8.8481018565
N                 9.5857350752       21.3109166675       -6.7620620099
C                 9.7205113575       22.5165665452       -7.6144716711
C                 9.2130849684       22.3594997973       -9.0229903962
O                 9.3331948051       21.4900461145       -9.5934098768
C                11.1503914960       22.8665793214       -7.7099359796
C                11.6831416475       23.7019712607       -6.6350927856
C                12.8069502343       23.5463442045       -5.8763274333
C                11.1940922446       25.0578284731       -6.2069082555
N                13.0465621743       24.7495017124       -5.0857124144
C                11.9470798654       25.6105291435       -5.2404311596
C                10.1706277995       25.9203257505       -6.6689317347
C                11.7205479926       26.7891372784       -4.5231628001
C                 9.8635274456       27.1427932805       -6.0798069621
C                10.6640704990       27.5322550675       -4.9426120413
H                10.4914207955       20.8978982417       -6.5230868121
H                 9.2493710574       23.3555508078       -7.0760878910
H                11.7625636899       22.0051878125       -7.6649366722
H                11.3225459307       23.4539259374       -8.6265828354
H                13.4025950567       22.6607310455       -5.9631645222
H                13.7080000676       24.6836862079       -4.2366303080
H                 9.4398229630       25.5043178572       -7.4454091723
H                12.3960454667       27.1643614319       -3.7905561583
H                 8.9837556754       27.7132713205       -6.3523450785
H                10.5026210709       28.4698843835       -4.5287808385
N                 8.1555878670       24.9713634823      -12.5199171640
C                 8.6531576066       26.2632470368      -13.0458007312
C                 7.9431334495       26.6469624036      -14.4143777444
O                 7.7131818255       25.8131819381      -15.1350128409
C                10.1781183383       26.4113925286      -13.1983341742
C                10.9177347129       26.7873161858      -11.9882183290
S                12.5041206356       27.4201701478      -12.5286774507
C                12.1429968488       28.3599757277      -13.7510677699
H                 8.2456453540       24.3076542613      -13.2040410945
H                 8.1744639738       26.9900839649      -12.3855088091
H                10.4954919037       25.4657483415      -13.5355433418
H                10.3902714255       27.2591010360      -13.9378148984
H                10.3625931918       27.6210457345      -11.5026498536
H                10.8889804833       25.8965677502      -11.3524977187
H                13.0574603980       28.8370617734      -14.2789930539
H                11.4991613245       27.8736201169      -14.5615372417
H                11.5320833320       29.2556437032      -13.4477892458
N                14.1797702409       33.1561127227      -12.4285516408
C                14.6342899476       32.5132113982      -11.1215441202
C                15.1648588551       31.0540403703      -11.5146719273
O                15.2711218520       30.6491021457      -12.4262643081
C                13.4284076760       32.3401389109      -10.1498671336
C                13.1272500611       33.5499841031       -9.2696055389
C                12.1066350713       31.9763717398      -11.0004020716
H                13.6127528325       32.4600892082      -12.9767904991
H                15.3439376900       33.1254408221      -10.6192015434
H                13.5105308431       31.4212371749       -9.5204489811
H                12.2266519827       33.2429987070       -8.6805912223
H                14.0441260967       33.6566284497       -8.6622707626
H                12.9482424123       34.3230490502      -10.0080127496
H                11.2627917250       31.7786143103      -10.2865716126
H                11.9578229373       32.7980923597      -11.7254494508
H                12.3297974194       31.0115928334      -11.5486287265
N                15.6073382880       30.4976930047      -10.3358457684
C                16.1631595728       29.0941682285      -10.5350329295
C                16.0829101612       28.2605810955       -9.0748849709
O                16.6205721794       28.7504371997       -8.1303918420
C                17.3141065541       28.9428437664      -11.2266274423
C                17.9239684379       27.5795113081      -11.4056547455
O                17.2390728745       26.6698713122      -11.7972492356
N                19.1728756211       27.1889144218      -10.9397897998
H                15.6460632166       30.6770713469       -9.3896685374
H                15.2880243519       28.6293736355      -10.9758891530
H                17.3789030710       29.4178309780      -12.1897708509
H                18.1233194979       29.3770184157      -10.6107787254
H                19.5307910914       26.1568750464      -11.1526338718
H                19.7065855878       27.9490025957      -10.6709175532
N                15.5426364804       26.9951178495       -9.1924552884
C                15.5802870202       26.1259155187       -8.0467104533
C                17.1556709933       25.9150689321       -7.6968684652
O                18.0482506283       25.9364591418       -8.2050774221
C                15.1068132417       24.7907789155       -8.5257912528
C                14.2545339805       24.6810829446       -9.6951563181
C                14.9500692007       24.0599273398      -10.8557733714
C                15.6816700325       22.8583897238      -10.4855023057
N                14.8592457975       21.9300874794       -9.7674827448
H                15.0782806567       26.4964483897      -10.0420789855
H                14.9859977272       26.4928319962       -7.3136158379
H                15.9107396165       24.0034358013       -8.7515195950
H                14.4874615956       24.3449041442       -7.7066934642
H                13.3274184694       24.0860635208       -9.5302808291
H                14.1024570546       25.7756975708       -9.9643386123
H                14.2207207784       23.7884660001      -11.6445440914
H                15.6552459707       24.8078702712      -11.2503206977
H                16.0153409417       22.2751046023      -11.3505943559
H                16.4767654717       23.1355698596       -9.7663890606
H                15.0708367341       20.8631945119       -9.9567250136
H                14.9900754165       22.0260059736       -8.6854598126
H                13.7731363092       22.0675652463       -9.9244928087
N                17.2280518306       26.0966340941       -6.2630198699
C                18.6020653022       25.7176867296       -5.7181950730
C                18.5142745437       24.2558638965       -4.9141534793
O                19.2687953849       23.6628504552       -4.8215570100
C                18.9891026808       26.7948050691       -4.6657378239
C                19.7778765380       26.1535918512       -3.4739087909
C                19.8298087002       27.8836814997       -5.4027518885
H                16.5476701182       26.3013826354       -5.5747294266
H                19.2821228969       25.7486247117       -6.4844629678
H                18.1179495990       27.2912057271       -4.2405498247
H                20.0140355830       26.9238977872       -2.7455806881
H                19.0398858487       25.3622572474       -3.1029194219
H                20.6026130630       25.6082619627       -3.9990635636
H                20.0852260817       28.5747436354       -4.5592800794
H                20.6867920324       27.3393712268       -5.7894226067
H                19.1478270649       28.3461689187       -6.1132422849
N                17.2158072241       24.1342330406       -4.3110113780
C                16.9327086976       22.8434678519       -3.6503206632
C                15.5775424049       23.0141878172       -3.0667755276
O                15.0214878239       24.0424197793       -3.1304922583
C                17.9459990560       22.5464829898       -2.6635843876
O                18.2565255488       23.6612595471       -1.7401001133
H                16.4435243873       24.7624935153       -4.3951526022
H                16.9179657326       22.0961101970       -4.3475590532
H                17.6489628028       21.8512279418       -1.9248984848
H                18.9207149352       22.3046549270       -3.0285446701
H                18.9970622225       23.5329453493       -1.0569389405
N                15.1685099486       21.8871492148       -2.4271778494
C                13.8441732046       21.8903021304       -1.8295030352
C                13.5340472437       23.2011015578       -0.9274447613
O                14.0787741412       23.5528906511       -0.1976950403
C                13.6263544682       20.5470501483       -0.9568312770
C                13.4903663870       19.5558305542       -1.5572018694
O                13.4910498397       19.3657970810       -2.8200213845
O                13.1879787676       18.3757811279       -1.0842743172
H                15.5644736081       20.9282399488       -2.4032089171
H                13.0498840182       21.8153323526       -2.5891364855
H                14.5339193429       20.5343672985       -0.3755654794
H                12.7629717637       20.8128298987       -0.2870864784
N                12.4729322162       23.9023946954       -1.5249087197
C                11.9701769968       25.0676044186       -0.6863435230
C                12.6893799899       26.2005942234       -0.9554410478
O                12.5186425834       27.3954316910       -0.6001337676
C                11.9390674412       24.7160268808        0.8219626851
C                10.9626889724       23.7264071038        1.3375214934
C                11.2386671891       22.4204915316        1.6192217627
C                 9.5281372298       23.8843096534        1.1714036647
N                10.0089742843       21.7410599373        1.8039028841
C                 8.9339449573       22.6494420059        1.5067558261
C                 8.5978689621       24.8905474627        0.7992729782
C                 7.5216077411       22.4035107159        1.5311688047
C                 7.2512290961       24.6542427757        0.6954463866
C                 6.7087424786       23.4329002395        1.0898873679
H                11.8751255077       23.7408516803       -2.2941432279
H                10.9543439011       25.3203466648       -0.9539369189
H                12.9219339933       24.2649687538        1.0742989767
H                11.6340591059       25.5929501331        1.3648477304
H                12.2125281810       21.9832120023        1.6740568200
H                 9.8734323636       20.7256647506        2.0916296628
H                 9.0210385058       25.8303047145        0.4162406008
H                 7.1666247749       21.3932322097        1.7811138920
H                 6.5672244842       25.4470740578        0.5061171080
H                 5.6841455358       23.2733357002        1.1962164760
N                13.8907633999       25.9638657894       -1.5036154313
C                14.8327160377       27.0908855742       -1.7973678860
C                15.0013446111       27.4290565748       -3.2785326730
O                14.9614378717       26.5809542870       -4.0480072808
C                16.2387113024       26.7920262304       -1.1536050594
C                17.0710371909       27.9884042482       -0.8106939217
C                18.5146195984       27.6605156865       -0.7047171573
C                19.3433007101       28.8949698443       -1.0175117609
N                20.2071182849       29.2854446185       -0.0060841079
H                14.2392057889       25.1421759898       -1.9341022904
H                14.5396054098       28.0324823272       -1.3212360441
H                16.0916722939       26.2115475586       -0.2281367691
H                16.7899376917       26.2039975420       -1.8890730081
H                16.9726947569       28.6755386669       -1.6339646398
H                16.7759098819       28.3296796690        0.1427868455
H                18.8029205856       27.3630264593        0.2900956018
H                18.8114047531       26.9054396897       -1.4885668751
H                19.8832591451       28.6531901614       -1.9535143584
H                18.6018223297       29.6855437746       -1.2863029307
H                20.7067560012       30.1780844748       -0.2897693916
H                19.6334215786       29.6298399770        0.7867141825
H                20.9611623147       28.5363201074        0.1783117003
N                15.1635943538       28.7478363448       -3.4013722649
C                15.0227777679       29.2184998560       -4.7578668829
C                16.1119332205       30.4556577296       -5.0641451026
O                16.3376868239       31.1594467231       -3.9432911922
C                13.7040627729       29.7291257579       -5.1657888969
C                13.1991106515       30.1657355931       -6.5668937853
C                12.8453290382       28.9053502782       -7.3642494993
C                12.1283626792       31.2185238089       -6.4661641834
H                15.3628627405       29.5365944663       -2.8031761381
H                15.3837981489       28.5571695404       -5.5922563789
H                12.9872884905       29.0027570649       -4.8813114526
H                13.5841259561       30.6936365904       -4.6510114146
H                14.0508668977       30.5998541123       -7.0724596758
H                12.4862941689       29.3017161984       -8.3492238007
H                13.6923161083       28.2452174199       -7.4048440304
H                11.9598890422       28.5185075886       -6.8021377368
H                11.8378005159       31.4594336038       -7.5281312455
H                11.2839688084       30.7385146102       -5.9537914744
H                12.5201365383       32.0999091713       -5.9566471952
N                16.7191679281       30.7312179576       -6.4000158158
C                17.3933987597       31.6204318401       -6.1982138311
C                17.1458271871       32.6762464874       -7.5184224973
O                16.5194698821       32.4185643071       -8.3023563537
C                19.0116251408       31.1877517380       -7.0625065623
C                19.7771185194       32.3268540085       -7.0051834657
C                21.1474997076       32.1358995112       -8.2839178180
O                20.6760192860       31.3777172593       -8.3325459731
O                22.1102596319       32.6127189861       -8.4775436940
H                16.5052554007       29.9751878487       -7.0143287311
H                17.5787667560       32.3139793380       -5.5873091001
H                19.2929668617       30.6383417824       -6.0965386445
H                18.8727563534       30.7300963497       -7.7474305133
H                19.3542756261       33.2925368711       -7.4699630917
H                20.3197917958       32.6132888595       -6.1186033696
N                17.2689298084       33.9010063782       -7.2190562928
C                16.9126403644       34.9646222742       -8.1604396765
C                17.6609837825       35.6897228315       -8.9956894415
O                18.6952572892       35.9221219984       -8.8366669924
C                16.3262012425       36.4659011654       -7.1914004969
C                15.4774299100       35.8144445644       -6.2420789107
C                15.5803976174       37.3470399722       -8.1449771372
C                14.1054534956       35.2955288315       -6.5397736774
H                17.6811626340       34.3840427494       -6.4137962085
H                15.9377476954       34.7118490700       -8.6511207300
H                17.1994640605       36.8135652052       -6.9181110939
H                15.8787616937       35.0745839442       -5.6192965673
H                15.2899152810       36.6713840083       -5.5120530034
H                15.1384578593       38.1439794243       -7.6390558724
H                16.1300594859       37.6172788730       -8.9809957249
H                14.6719522969       36.7182542034       -8.6346534918
H                13.4811679889       35.0636118917       -5.5884180797
H                13.5169899494       36.2044053501       -7.0225907782
H                14.1778345614       34.5824425635       -7.2295295488
N                17.2719548139       35.4481400619      -10.3742314213
C                18.2235326099       35.7324830994      -11.5794009567
C                17.9764585341       36.9438661784      -12.3579295706
O                18.6926611156       37.4019786056      -13.1570483600
C                18.2966420729       34.5631463081      -12.5757873822
C                18.4272889351       33.1121704821      -11.9241889767
C                18.3170224207       32.0454016873      -12.9797649278
C                19.7228618039       32.9840407372      -11.1039649944
H                16.3652557165       35.2331786211      -10.7602121685
H                19.3016989099       35.7427676708      -11.2265621281
H                17.2827940264       34.5510488410      -12.9930569528
H                19.1156555480       34.6116426688      -13.2297236617
H                17.5526512365       32.9184367080      -11.2823063243
H                18.3777149999       31.0352323417      -12.5362300545
H                17.3461965301       32.1795870239      -13.5246716774
H                19.1423262503       32.2593783025      -13.7031625488
H                19.6855016095       31.9741649569      -10.7125353593
H                20.4918217666       33.2388899811      -11.8322835537
H                19.5718789857       33.8210843069      -10.3585622353
N                18.2945760220       34.8311390218       -2.3360690172
C                17.8008594740       33.5525923953       -2.4803019596
C                16.5164159605       33.6500941925       -1.6073268299
O                16.4641649776       34.3125253171       -1.2343571352
C                18.7229040493       32.7311073072       -1.3639854981
O                18.6705865276       32.5983249307       -0.7665911002
C                20.2954272250       32.2341217298       -2.1530978634
H                18.9712131154       34.9635886879       -1.9600208036
H                17.4552906937       33.0471391646       -3.2673601132
H                18.2225134806       31.5132871705       -1.7300409568
H                19.3868702827       32.0351758714        0.2100810464
H                20.5638151901       31.6818847192       -1.8463330336
H                19.8704509797       32.1768829734       -3.3632852068
H                20.4727405050       33.3394839757       -2.1707686790
N                15.7519648830       32.6295929170       -1.5130032899
C                14.4966373128       32.6816541090       -0.7265301530
C                14.2771783936       31.2065858127       -0.1936223849
O                14.4123597022       30.3088155807       -0.8719962773
C                13.2500528640       32.9929148955       -1.5839572772
C                13.1966182495       34.5399818178       -1.7495399949
C                11.9424573805       32.6038428393       -0.8718209861
C                13.1299086057       35.3471593861       -0.4410987490
H                15.7787503372       31.7183461732       -1.9723733225
H                14.5396002435       33.3856262687        0.1405904974
H                13.2950756602       32.5778002206       -2.5349894473
H                14.1480010396       34.8565528276       -2.2198428394
H                12.3392751069       34.8565390843       -2.3346262800
H                11.1166141676       32.9196992477       -1.5649963002
H                11.9957382266       31.4921190243       -0.8273784442
H                11.8548828670       33.1094236971        0.1022737542
H                13.1487526609       36.4237401506       -0.7469892597
H                12.1767126936       35.0197236934        0.0134624559
H                14.0742742764       35.0552161532        0.1465136503
N                13.9737987216       31.1755908379        1.1878124817
C                13.8690053302       29.8451907412        1.9407298451
C                12.7229390835       29.8535863473        2.8718664373
O                12.6400077302       30.8093601180        3.6174643953
C                15.2599307030       29.5894861547        2.5059122337
C                15.4596774909       28.3582264873        2.3659058573
O                14.7212537972       27.3424835172        1.9039279061
O                16.5422844906       27.7635523602        2.6187065611
H                13.4676774208       31.9505456882        1.7679496038
H                13.4767508843       29.2013951824        1.1333147923
H                15.9068997852       30.1936011902        1.8719473741
H                15.0839508371       29.8608411460        3.4970092574
N                 4.7968413142       27.1023012720       -1.1623183942
C                 4.9260844364       28.5509114051       -1.5203781616
C                 5.2567398256       28.7472126749       -2.9987212326
O                 5.9626173974       27.7859649605       -3.4616053863
C                 5.7572162328       29.2562030487       -0.4417405509
C                 7.3082191027       29.1675472747       -0.4867091081
C                 8.1504009700       28.1376913284        0.0620705245
C                 8.1931661473       29.9552441713       -1.4286739070
N                 9.4575818372       28.3300370506       -0.3723953827
C                 9.5146194087       29.3570410578       -1.3477441873
C                 7.9884653701       30.8270838985       -2.5624481478
C                10.5392460362       29.6928526270       -2.2529318069
C                 8.9893460890       31.2540757416       -3.4223909172
C                10.2695488188       30.6180269331       -3.2130492815
H                 5.2370067666       26.5827069851       -1.9495416200
H                 3.8938053435       28.9568623283       -1.5032775774
H                 5.6287040171       30.3374965487       -0.5638457737
H                 5.5577174772       28.8771919945        0.5184399409
H                 7.6933133436       27.5018761516        0.7779524818
H                10.1888091891       27.7236206694       -0.0867992997
H                 6.8829713596       31.1650030054       -2.7505823057
H                11.5386416187       29.3799084788       -2.0321359123
H                 8.8495382745       32.0624429697       -4.0732135159
H                11.1088408556       31.1166264963       -3.6435086409
N                 6.1770326110       31.9207392234       -6.0757783896
C                 6.6008708607       33.6439672840       -6.6050937991
C                 6.3662460362       33.6971454366       -8.1365235454
O                 6.1571498045       32.7541434173       -9.0895842188
C                 8.1606509138       33.6679608471       -6.3422905281
C                 8.5755130083       34.8840885650       -6.0316771001
C                 8.9308857113       32.9583026970       -7.8543196955
C                 9.9591114611       35.3935098197       -5.5785188135
H                 6.0778780363       31.3441857485       -7.1575448778
H                 6.0801849870       34.1290371065       -6.0495852492
H                 8.3924597900       32.8979217827       -5.5716312376
H                 8.2950366837       35.5629888528       -7.0511289704
H                 7.9751045896       35.2866293980       -5.2713746651
H                10.0112988971       33.0991762257       -7.3703684271
H                 8.6954909293       31.9878797665       -7.7507133493
H                 8.5999247939       33.5352957182       -8.4833346507
H                10.1154247968       36.2384558739       -5.6426147186
H                10.1836626046       34.6285268561       -4.9234510765
H                10.5428945706       34.7839952379       -6.6316329177
N                23.4734270144       30.1384685191        4.7192721930
C                22.0163298456       29.9998692086        4.9001918577
C                21.4247718871       28.6130284996        4.7639359704
O                22.1386272009       27.6927290522        3.5811976786
C                21.3042402246       30.9645182347        3.6582780341
C                19.7792115747       31.1139394714        3.6280374059
C                18.9733103436       29.9514294742        3.2976274066
O                18.2041465745       30.1989317850        3.6393767497
O                19.5739267859       28.7490250339        2.4570536249
H                23.4845069527       30.0746878590        4.1168368859
H                21.6062123784       30.6399486811        5.4829198792
H                21.8482924874       31.7862975149        3.3904980342
H                21.5631602381       30.2177353408        2.6322956184
H                19.6696130689       31.5554846186        4.5691436980
H                19.7548551150       31.8471548177        2.8358396989
H                 7.9448369577       30.6694490364      -10.8585277193
H                 6.9196652235       27.8893490385       -8.0431229847
H                 9.1699251904       21.5304947666       -5.9946718888
H                 8.7285902173       23.1133077915       -9.4668804098
H                 8.6386648423       24.7346302021      -11.7983951685
H                 7.7167536616       27.6011845002      -14.6098576206
H                13.6767896995       33.8803101190      -12.2481390412
H                17.1293747215       37.4587566618      -12.2262602707
H                18.4328233476       35.1932125904       -3.1483438523
H                12.0674434942       29.0984202719        2.8648144154
H                 5.2231484646       26.9456967107       -0.3853131015
H                 4.9253075101       29.5575869152       -3.4818839494
H                 6.8378022389       31.5939712516       -5.5594391683
H                 6.3496474389       34.5780515776       -8.6095233945
H                23.7386222125       30.9432342865        5.0226260563
H                20.6728156502       28.3295035512        5.3590623616
