 335 
 
N                38.9498812905       36.6777447141       89.0353685866
C                39.2386826728       35.9698858684       87.8023948435
C                38.4226078490       34.6794777256       87.7859598454
O                38.4927011545       33.8626309487       88.7016694825
C                40.7337998762       35.6644058242       87.7280529481
H                39.1866402510       36.2082679318       89.9131017037
H                38.9296342309       36.6119100946       86.9727632986
H                40.9460877976       35.0326392258       86.8719985608
H                41.2915616388       36.5931670621       87.6358868194
H                41.0482516929       35.1579024900       88.6373938933
N                37.3042836451       31.0607373565       86.0300873959
C                37.7807540692       29.9308390323       85.2638093299
C                36.7128719556       28.8450958686       85.3622545512
O                35.9421358820       28.7895311370       86.3105196183
C                39.1033845970       29.3647862492       85.8006015595
C                40.2031956833       30.4146912926       85.7294731139
S                41.8500308324       29.6558461795       85.5299726155
C                42.1053070629       28.9801208069       87.1861380608
H                36.8542560659       30.8208463366       86.9043953751
H                37.9280896476       30.2744234057       84.2352349668
H                38.9720620174       29.0271583162       86.8314795062
H                39.3977805535       28.5046741078       85.1963914456
H                40.0774669188       31.0482474404       84.8523866357
H                40.2274810195       31.0471275331       86.6175440424
H                43.1056113447       28.5610079946       87.2206908609
H                42.0307134135       29.7731594158       87.9248426779
H                41.3878483326       28.1942242772       87.3987431761
N                37.5277752464       34.3504307511       91.3891205109
C                38.5069598121       34.0719354311       92.4205642063
C                39.4130958426       35.2859896822       92.5997526705
O                39.7796576773       35.9306354496       91.6145524869
C                39.3240962460       32.8397188481       91.9750968307
C                40.0568042545       32.2067466342       93.1062481054
C                41.1817943457       32.6674793327       93.7317248402
C                39.6661023289       31.0232201887       93.8009025473
N                41.5057725752       31.8588719233       94.7818567135
C                40.5984719829       30.8436516736       94.8542379259
C                38.6407627236       30.0918106655       93.6228270975
C                40.4914062264       29.7779383329       95.7420564523
C                38.5480923899       29.0347967710       94.5013338661
C                39.4598611962       28.8833654341       95.5541416062
H                37.8586275396       34.2018856955       90.4392741192
H                37.9607860203       33.8652872320       93.3437352403
H                38.6168637875       32.1274535458       91.5478041829
H                40.0096434166       33.1573435863       91.1865487359
H                41.7794891001       33.5329583616       93.5180059601
H                42.3248861380       31.9784041715       95.3565070512
H                37.9460950710       30.2225760526       92.8087360095
H                41.2044320702       29.6536260450       96.5449629289
H                37.7598752346       28.3072941087       94.3939507706
H                39.3885404214       28.0381768773       96.2210509602
N                39.7782388128       35.6484281608       93.8322083570
C                40.6313966407       36.8208531220       94.0341442470
C                42.0312775495       36.5696535283       93.4644706269
O                42.6351283450       35.5190242009       93.6689653652
C                40.6606754804       37.0041735143       95.5576673118
C                40.4210663441       35.5902382235       96.0801652566
C                39.3998115138       35.0325861575       95.0933027504
H                40.2020534762       37.6877751060       93.5213415274
H                41.5986192081       37.4283638083       95.9133601440
H                39.8522924887       37.6690739216       95.8616050676
H                41.3481240353       35.0170845050       96.0225966156
H                40.0710660068       35.5697654191       97.1096198794
H                39.4410181184       33.9464905761       95.0390567910
H                38.3870670017       35.3488422036       95.3690686760
N                42.5551861342       37.5681387306       92.7543988564
C                43.7508195180       37.3696053231       91.9605099464
C                44.3183821602       38.7297511028       91.5629896004
O                43.7321364682       39.7782615029       91.8042841834
C                43.4103172261       36.5372845216       90.7210879948
H                42.0127275682       38.3913781983       92.5106160137
H                44.5022670138       36.8392088656       92.5566230943
H                44.3115963469       36.2455477850       90.1957822435
H                42.8730368312       35.6420637049       91.0249464317
H                42.7665945266       37.1041686763       90.0526729434
N                50.1784507175       39.7340943939       87.4208487808
C                51.5389802293       39.8380526597       87.8883430889
C                52.5694128501       39.9690769449       86.7660796940
O                53.7285559199       40.2414547413       87.0506606594
C                51.9221509991       38.7122235136       88.8390514562
C                51.8437221243       37.3267518216       88.1209980844
O                51.6904115233       37.3511865280       86.8830858583
O                51.9215956353       36.3332485355       88.8668110599
H                49.9379993895       38.9216710977       86.8653362490
H                51.6015526755       40.7922603265       88.4351213628
H                52.9543505951       38.8467652270       89.1634937603
H                51.2659684339       38.6957021886       89.7090932561
N                49.0506097728       37.3998095874       82.5188887183
C                49.3448071652       36.3444178302       83.4767445274
C                48.7649480938       36.7536095114       84.8416278284
O                48.9607332832       37.8698758996       85.3244240744
C                50.8279051389       36.0079404698       83.6037413888
C                50.9804216114       34.8324088003       84.5662226964
C                52.3683949058       34.2173372120       84.5696117179
O                53.0751795355       34.1746703186       85.5671109430
N                52.6935467623       33.6020311583       83.4196420844
H                49.6087184043       38.2403244037       82.5722991653
H                48.8062212464       35.4573143666       83.1261861412
H                51.2438817308       35.7704396812       82.6242044511
H                51.3804833948       36.8610534440       84.0051926717
H                50.7846599221       35.1756687120       85.5847037241
H                50.2687067203       34.0429270391       84.3101991948
H                52.1479027053       33.7385161542       82.5790796673
H                53.6426404675       33.2906164381       83.2867816060
N                47.9452134408       35.8519267072       85.3726282535
C                47.2275998254       36.0526795497       86.6068716399
C                47.8177107006       35.1439977636       87.6817652707
O                48.1463073254       33.9924744076       87.4155453300
C                45.7522489634       35.6849756135       86.3695409342
C                44.9634012018       35.7777383042       87.6669644823
C                45.1548450111       36.5961055399       85.3040874011
H                47.8788182865       34.9199651387       84.9753456885
H                47.3304777846       37.0981087506       86.9074511421
H                45.7361741585       34.6503000090       86.0103403758
H                43.9066341202       35.6034433091       87.4821169279
H                45.3071079011       35.0313077329       88.3801044437
H                45.0862367854       36.7681723105       88.0999700865
H                44.1224197085       36.3127717857       85.1159052453
H                45.1749508370       37.6294075710       85.6451502832
H                45.7192945597       36.5232374789       84.3774911774
N                47.8918938454       35.6750943557       88.9042594230
C                48.2943692746       34.9453364868       90.0842540787
C                47.0925368801       34.9314683192       91.0212358418
O                46.5587441413       35.9902993885       91.3468052338
C                49.4347721278       35.6902978317       90.7817359992
C                49.8038815032       35.0833232582       92.1054372165
C                50.7860779596       34.1015332516       92.1726679817
C                49.2124284634       35.5274217156       93.2860979802
C                51.2007110575       33.6009927234       93.3932974656
C                49.6306816792       35.0342454779       94.5095826618
C                50.6333146240       34.0802826839       94.5636983123
H                47.6094138085       36.6386440613       89.0448552749
H                48.5786623972       33.9306417529       89.7988855347
H                50.3030301499       35.7224709421       90.1182521394
H                49.0612964589       36.7069373676       90.9227973736
H                51.2498466949       33.7595232840       91.2603265558
H                48.4240845642       36.2672891422       93.2570158260
H                51.9919248984       32.8679353390       93.4386062208
H                49.1773626495       35.4065798420       95.4185958273
H                50.9747343769       33.7068224336       95.5167725035
N                46.6479619745       33.7303021196       91.3834721160
C                45.4745269203       33.5550745694       92.2102758432
C                45.8717225849       33.5188627329       93.6865435654
O                46.7348005126       32.7605284401       94.1150559899
C                44.7730756410       32.2390462911       91.8624071519
C                44.2193656127       32.2632836960       90.4717856047
C                42.8906060100       32.5985177411       90.2502729912
C                45.0250100333       31.9650700249       89.3840115106
C                42.3684038258       32.6153369501       88.9700388560
C                44.5098245779       32.0044318177       88.1012745732
C                43.1811203788       32.3252785950       87.8883382033
H                47.2012090509       32.9065790209       91.1826173279
H                44.8139849682       34.4071613541       92.0228629702
H                45.4949104592       31.4263897538       91.9767957854
H                43.9689449922       32.0696282077       92.5814492619
H                42.2598906540       32.8223270830       91.0978508982
H                46.0586440671       31.6875277063       89.5331039875
H                41.3232407950       32.8439169002       88.8205759176
H                45.1615779123       31.7693493445       87.2736378634
H                42.7871300099       32.3271508905       86.8840840418
N                45.2294926223       34.3920321272       94.4682245477
C                45.5334572940       34.4269333262       95.8795172791
C                45.0504415266       33.1388077668       96.5370569550
O                44.1615874212       32.4469258959       96.0424656249
C                44.9000563336       35.6478278813       96.5332389103
C                45.5410873757       36.9213626822       96.0613093868
C                46.8059985597       37.2629789796       96.5232197329
C                44.8776011421       37.7923405729       95.2089746085
C                47.3820212694       38.4611175755       96.1444859767
C                45.4548760141       38.9892900428       94.8220452027
C                46.7089709230       39.3260139234       95.2949241544
H                44.3801871447       34.8561288940       94.1498798509
H                46.6233321855       34.4717226152       95.9939893418
H                43.8292419103       35.6519027920       96.3206383750
H                45.0539701279       35.5728753151       97.6102278442
H                47.3155214184       36.6039195056       97.2124276620
H                43.8825047346       37.5481008296       94.8745140848
H                48.3528253334       38.7435031658       96.5274948559
H                44.9100726424       39.6570523042       94.1719053491
H                47.1772765857       40.2613855075       95.0333150905
N                45.6770340862       30.0985911084       96.6613849454
C                46.2029520629       28.8950578457       96.0697676836
C                47.5803181922       29.0856048952       95.4090630012
O                48.3208844032       28.1308831945       95.2185017953
C                45.2503465524       28.3666466686       94.9866063696
O                45.3383883680       29.2610464663       93.8921962774
C                43.8234595044       28.2369366602       95.5119698416
H                45.2010270584       30.7583219307       96.0605377933
H                46.3182112703       28.1594532547       96.8722868335
H                45.6196325748       27.3762883489       94.6738278388
H                44.9593221453       28.7972251084       93.1047192257
H                43.1891132935       27.8349525111       94.7269268008
H                43.7893572753       27.5719252235       96.3678360143
H                43.4413530549       29.2133024682       95.7936949165
N                47.8674836684       30.3470704857       95.0725409520
C                49.1252779510       30.7582187137       94.4895733077
C                49.3950573922       30.0603451352       93.1468754238
O                50.5233546041       29.8512843817       92.7268157714
C                50.2868056977       30.5353639260       95.4635838467
C                50.1001149621       31.2075083885       96.7837885756
N                50.7352651108       30.7296747111       97.8976285525
C                49.3537626749       32.3041111010       97.1298846297
C                50.3868205880       31.5272273653       98.8776275490
N                49.5502201966       32.4988015508       98.4691318173
H                47.1515382646       31.0551520552       95.1226540462
H                49.0356567398       31.8255521608       94.2559745064
H                50.3953681757       29.4616310055       95.6252554225
H                51.2003963060       30.8978184720       94.9831666547
H                48.7004530319       32.9282175939       96.5537163217
H                50.7138637285       31.4411916531       99.8937270885
H                49.1143277086       33.2035447282       99.0599744530
N                48.2951145843       29.7081632922       92.4686141621
C                48.3721635068       29.2337322132       91.1053910354
C                48.5438501279       30.4226424737       90.1608465078
O                48.2828234462       31.5678503653       90.5322334984
C                47.0973092493       28.4683507678       90.7555828415
C                46.9149438017       27.2459200427       91.6446578333
C                45.4283161804       26.7929255999       91.6914477126
O                44.5676899274       27.7014054045       91.8462040678
O                45.1909830677       25.5817017698       91.6014321129
H                47.3827610775       29.9497354686       92.8303242368
H                49.2516078145       28.5871964266       91.0147762884
H                46.2379657183       29.1346220166       90.8852319818
H                47.1380594620       28.1620556782       89.7096609036
H                47.5185073275       26.4146912611       91.2843809173
H                47.2158774423       27.4830801497       92.6691159163
N                48.9447603409       30.1313600299       88.9220423407
C                48.8733870338       31.1017922201       87.8583224239
C                48.1682311783       30.4865432881       86.6535586402
O                48.1164699209       29.2772573622       86.4729536587
C                50.2377188911       31.6619384946       87.3925638187
O                50.8683650482       30.7055490178       86.5668963175
C                51.1011443757       32.0740658934       88.5764605794
H                49.1446263630       29.1731585769       88.6595516615
H                48.2973725237       31.9542812073       88.2290167872
H                50.0145900078       32.5609016735       86.7941400685
H                51.7828981164       30.9894038096       86.4364089386
H                52.0254723530       32.5269059030       88.2236712838
H                50.5693017208       32.8173029467       89.1624838681
H                51.3134638589       31.2139022636       89.2069309371
N                47.6293860194       31.3888173466       85.8292501916
C                46.9982656757       31.0441370667       84.5709275576
C                47.0576313385       32.2729119493       83.6645531015
O                47.5236759701       33.3371978498       84.0538292526
C                45.5467911308       30.5916447173       84.7695669392
H                47.7433838263       32.3788702501       86.0316127723
H                47.5693964484       30.2189082409       84.1250442035
H                45.1356601738       30.1573775141       83.8625131267
H                45.5154253430       29.8230754449       85.5393423772
H                44.9164350501       31.4219543634       85.0763792578
N                46.5545042749       32.1063132899       82.4413054512
C                46.4547431939       33.1727781984       81.4677548161
C                44.9866454638       33.3221505456       81.0646612216
O                44.3681371445       32.3930875486       80.5726640397
C                47.2415819597       32.8248882870       80.1945744819
C                48.7214309503       32.9528046284       80.3949200344
C                49.3157702292       34.2049496351       80.3043676306
C                49.5097943451       31.8384412090       80.6559901597
C                50.6877000153       34.3340702682       80.4167794187
C                50.8798465329       31.9716753011       80.7918637962
C                51.4754231110       33.2147911756       80.6429079906
H                46.1764921789       31.2119484253       82.1612811229
H                46.8344918941       34.0862699672       81.9308888466
H                46.9734655069       31.8080128351       79.9056397107
H                46.9325220112       33.5265231223       79.4200261656
H                48.7073157943       35.0802370486       80.1322611213
H                49.0578376789       30.8620272563       80.7553178588
H                51.1539678389       35.3026125655       80.3021872766
H                51.4959343300       31.1132613777       81.0101215005
H                52.5529438355       33.2864942519       80.6408228938
N                44.4768308457       34.5495467292       81.2070979562
C                43.0825839309       34.7942404543       80.9194442750
C                42.9216677825       36.0616880986       80.0903719319
O                43.7121498720       36.9923796637       80.1384233034
C                42.2619361124       34.9510633521       82.2060372103
C                42.2721339290       33.7096540359       83.1008596272
C                41.5643168321       34.0541712736       84.4083248550
C                41.6051265411       32.5077908578       82.4344911577
H                45.0192408857       35.2895037339       81.6335147479
H                42.7223325829       33.9250079778       80.3634141272
H                42.6660084233       35.7966871451       82.7665914496
H                41.2299163017       35.1932663587       81.9436403268
H                43.3121120567       33.4516983281       83.3351280610
H                41.6280488127       33.2208709729       85.1041741316
H                42.0162081150       34.9284967672       84.8728706417
H                40.5111218383       34.2633640305       84.2299308067
H                41.5577893455       31.6834573827       83.1415471807
H                40.5925305695       32.7618725474       82.1271483083
H                42.1784629540       32.1707240817       81.5767878818
O                42.2388044917       27.8574744221       90.3793374529
H                43.0921596833       27.7090683835       90.8333310407
H                41.6907299195       28.2762650211       91.0474188157
N                49.8755814030       26.9707144625       82.6963842103
C                49.5032364974       27.2746563263       84.0596073370
C                50.6187062964       26.8288861714       85.0041518646
O                51.4799720823       26.0302264882       84.6327648740
C                48.2029695934       26.5532908759       84.4094155309
C                47.0531308074       27.0065731280       83.5203405391
C                45.9175123014       25.9456130635       83.4735506598
O                46.2739657645       24.7460489629       83.3187943046
O                44.7498951386       26.3456884738       83.5635662595
H                49.6286122912       26.0598070603       82.3346741356
H                49.3830422357       28.3595453313       84.1502220840
H                48.3503056552       25.4759419231       84.2797663905
H                47.9580853711       26.7417291401       85.4553374687
H                46.6350473290       27.9448888649       83.8806174551
H                47.4089843050       27.1486092522       82.4958824561
N                50.5669034069       27.3217258224       86.2429560317
C                51.3716356827       26.7746986302       87.3066759485
C                50.4862365503       26.4716402117       88.5114397322
O                49.4130835892       27.0314566108       88.6920447137
C                52.5389025149       27.6761715406       87.7724345537
O                52.0259680107       28.7005218718       88.5981020549
C                53.3275280542       28.2178562452       86.5885377930
H                49.8370096177       27.9739156014       86.5054467109
H                51.8219055470       25.8496109379       86.9359815852
H                53.2058630233       27.0334546699       88.3708583038
H                52.7290600054       29.3506033456       88.7285894338
H                54.1818629950       28.7919277501       86.9413270886
H                53.7052688960       27.3856484685       86.0025145043
H                52.6887642410       28.8318121262       85.9580674353
H                39.4046323413       37.4542754235       89.0495650334
H                37.8132852173       34.4829752946       87.0177718962
H                37.9963176298       31.5988657571       86.2338195449
H                36.6312211446       28.1572303269       84.6410235607
H                36.8122699929       33.8162953927       91.5020437194
H                45.1971266121       38.7856803662       91.0889852695
H                49.6191768027       39.7153994822       88.1257340115
H                52.2927535676       39.8327017713       85.8148376357
H                49.1663324032       37.0874972413       81.6827850936
H                45.4585405613       32.8330259054       97.3972619487
H                45.0735635000       29.8837116814       97.2935637837
H                42.1418683682       36.1589908361       79.4719505136
H                49.4846587175       27.5599941729       82.1396716481
H                50.7766965164       25.7946992018       89.1877413493
