 355 
 
N                41.5707693516       62.0082620281      -17.5725896420
C                42.8207424421       62.5627311497      -18.0652096092
C                44.0603562672       62.1612196527      -17.2883001591
O                44.9830646268       61.5876330848      -17.8542666890
C                42.9820664067       64.0786389364      -17.9820236231
C                42.3409490873       64.9061540937      -19.0856409543
C                43.1077989410       66.2257825184      -19.2096390459
C                42.3351590166       64.1775195861      -20.4176024582
H                40.9467812690       62.6290386402      -17.0639657252
H                42.9765531931       62.1731130543      -19.0749653220
H                42.6193028103       64.4122192551      -17.0087341431
H                44.0607293973       64.2601561190      -18.0125973165
H                41.3033641731       65.1144765504      -18.7985039217
H                42.6181867908       66.8645167053      -19.9389417832
H                43.1404132569       66.7392494184      -18.2516113636
H                44.1288014851       66.0449123820      -19.5357675983
H                41.7925399182       64.7541199482      -21.1614552876
H                43.3571700692       64.0464429936      -20.7637032564
H                41.8822739123       63.2026557314      -20.3408051489
N                47.9706469037       61.5214998728      -19.4332092174
C                47.7301415069       62.8258446572      -20.0059291285
C                47.4841447769       63.9624034237      -18.9851972835
O                46.6517197899       63.9285590495      -18.0942696798
C                46.4910066493       62.6935701152      -20.8978683371
C                46.7255750976       61.6957926565      -22.0466119819
C                46.0902349181       64.0790799275      -21.3864749691
C                45.8173478122       60.4768442209      -21.9409096220
H                47.5981374701       60.7594442083      -19.9843106585
H                48.6062664660       63.0852042785      -20.6165702320
H                45.6955513254       62.3159175482      -20.2447678691
H                46.5144636912       62.1910561023      -22.9940047845
H                47.7667390238       61.3736917243      -22.0628307180
H                45.2935836202       64.0016877207      -22.1231583225
H                45.7160544476       64.6821318431      -20.5630826173
H                46.9303253263       64.6030300330      -21.8093539283
H                45.9887938099       59.7880019664      -22.7642157183
H                45.9676318417       59.9391296984      -21.0066592598
H                44.7721340779       60.7800804174      -21.9724584862
N                48.2440800767       65.0490699879      -19.2524583958
C                48.1747322299       66.3460966884      -18.6030387633
C                47.1414628934       67.2895337739      -19.2325416974
O                46.6326723088       67.0906526448      -20.3286626626
C                49.5478485270       67.0361323950      -18.7433399456
C                49.6705318958       68.5931883216      -18.4784053146
O                50.1131926899       68.9576110086      -17.3728533541
O                49.3891174971       69.3371131540      -19.4351892452
H                48.8219326205       65.0294008572      -20.0771154814
H                47.9049838116       66.1724692093      -17.5568965366
H                50.2754262222       66.5465031402      -18.0938205843
H                49.8612949049       66.9339114135      -19.7851138197
N                46.8966103046       68.3849994825      -18.4938989158
C                46.2818319326       69.5451351345      -19.1161090259
C                47.1157823554       70.0893226079      -20.3008037126
O                47.1068351033       69.5278699216      -21.3898932802
C                45.9981124896       70.5034954983      -17.9425442089
C                47.0276967460       70.1218175042      -16.8805651104
C                47.1130685268       68.6060607019      -17.0616975257
H                45.3583464284       69.2142951055      -19.6027589744
H                46.0269595811       71.5524112917      -18.2251650264
H                45.0005421629       70.2822824781      -17.5591165333
H                48.0049732711       70.5611262476      -17.0841394489
H                46.7239099925       70.3948847188      -15.8740059730
H                48.0713551180       68.2269392345      -16.7175326783
H                46.3046056809       68.1030089895      -16.5174135702
N                47.6283098239       71.3129804008      -20.1008588177
C                47.9754987010       72.3247240182      -21.0924121194
C                47.8555224815       71.7694686554      -22.5290066107
O                46.7950971326       71.7767210039      -23.1462851919
C                49.3217779839       72.9706768976      -20.7234281716
C                49.2124791138       73.9296163006      -19.5215876522
O                48.2091515992       74.5669251774      -19.2517094564
N                50.3381538388       74.0568937632      -18.8102557242
H                47.7955627601       71.6018805770      -19.1496232743
H                47.2004084990       73.1080230295      -21.0144033143
H                50.0427019665       72.1862004489      -20.4894443255
H                49.6835544000       73.5706604027      -21.5613931816
H                50.3451129793       74.7041482468      -18.0361134771
H                51.1373433438       73.4647036480      -18.9580565240
N                48.9954687976       71.3726925483      -23.1039883754
C                49.0743085507       71.0155544759      -24.5162999079
C                47.9895083852       70.0180633181      -24.9147650371
O                47.4011148723       70.1161971204      -25.9913632174
C                50.4776751101       70.4481340387      -24.8544737495
C                50.8602666877       70.4684086306      -26.3391825665
C                52.3067383896       69.8697894398      -26.6276728029
O                52.4917786461       68.6726553029      -26.3332123639
O                53.1318011071       70.6468246944      -27.1505099073
H                49.8406352916       71.3215834680      -22.5562300941
H                48.9108181565       71.9230247650      -25.1123759510
H                51.2194459709       71.0440149334      -24.3164083104
H                50.5523643340       69.4197012614      -24.4933900590
H                50.1574432204       69.8693364423      -26.9229457965
H                50.8639858938       71.4864870590      -26.7299014650
N                47.7852021570       68.9730012596      -24.1128237896
C                46.8340242189       67.9790042256      -24.5605557994
C                45.5188321890       68.6659253822      -24.8652653464
O                44.7702849553       68.3805888075      -25.7995152811
C                46.7787868871       66.8719629591      -23.5228845596
C                48.0716226485       66.0314448315      -23.6308488361
C                48.8642352567       66.0926476963      -22.3244151145
C                47.7419664544       64.6139084934      -24.1198375761
H                48.0077261426       69.0006311361      -23.1244973057
H                47.1929561902       67.5720283953      -25.5173242730
H                46.6702579333       67.3110637072      -22.5335072365
H                45.8996189138       66.2556593016      -23.7118637080
H                48.7072607085       66.4933048835      -24.3934422377
H                49.4282984562       65.1794149338      -22.1468189652
H                49.5669036488       66.9262133063      -22.3499056913
H                48.1933627655       66.2797202412      -21.4958175354
H                48.4259840398       63.8728583640      -23.7259324587
H                46.7389484978       64.3293879943      -23.8275763607
H                47.7654364641       64.5915430167      -25.2062827610
N                45.2020038498       69.6359500608      -24.0352496289
C                43.9446163847       70.2882385590      -24.2377838748
C                43.9620930308       71.0267041524      -25.5863790204
O                43.0778177991       70.8846488053      -26.4192061408
C                43.6820486149       71.1280001453      -23.0038786034
C                44.0888235740       70.3941399526      -21.7089829745
C                43.4210644399       71.1102826033      -20.5349757703
C                43.7762211373       68.8999189177      -21.6868513424
H                45.8119866414       69.9462214057      -23.2951210104
H                43.1707541207       69.5177732136      -24.3542731313
H                44.2629748225       72.0501613913      -23.0598401704
H                42.6245569788       71.3956892764      -22.9716462532
H                45.1601738490       70.5279654850      -21.5891606084
H                43.7361926612       70.6981770080      -19.5832065487
H                43.6835611620       72.1660798592      -20.5488428040
H                42.3391286765       71.0242081879      -20.5974022837
H                43.9122874864       68.5199923125      -20.6786595540
H                42.7408812645       68.7206594949      -21.9713380407
H                44.4253100919       68.3235540761      -22.3319595847
N                45.0345338032       71.8083420057      -25.7823560290
C                45.2835053991       72.4788842983      -27.0525231161
C                45.0078290264       71.5393503142      -28.2328879589
O                44.4122108787       71.9283512808      -29.2295837243
C                46.7337923297       72.9963497869      -27.0912680715
C                47.1872754149       73.6532040589      -28.4076440825
O                47.2006560579       73.0597899893      -29.4757897210
N                47.6654100777       74.9026321157      -28.2763777825
H                45.7549753055       71.8513932311      -25.0715323041
H                44.5841992717       73.3202153819      -27.1659827914
H                46.8722935948       73.6814781860      -26.2540704847
H                47.3872831094       72.1293993413      -26.9545567962
H                48.0382415419       75.3613358441      -29.0931933922
H                47.5652579209       75.4307355044      -27.4271596825
N                45.4326957435       70.2787537354      -28.0888590126
C                45.4256736427       69.3664830257      -29.2152800260
C                44.0178056531       69.0186143094      -29.6868997420
O                43.7680442255       68.8479920281      -30.8750077454
C                46.1377135292       68.0549370610      -28.8405120261
O                45.3405537579       67.1692406191      -28.1244554571
H                46.0456949392       70.0555448462      -27.3125405992
H                45.9461272662       69.8280964617      -30.0664261080
H                46.4198166502       67.5362759661      -29.7611278945
H                47.0533110649       68.3187384473      -28.2887831684
H                45.1177795551       67.5461858890      -27.2441252343
N                43.1154160128       68.8454937156      -28.7123327690
C                41.7378155418       68.6626974172      -29.0764707669
C                41.0194651270       70.0200265616      -29.2704303964
O                39.8003035571       70.0577032288      -29.3322545291
C                40.9913960463       67.7011983851      -28.1469117134
C                40.5623488321       66.4217950668      -28.8543809079
S                39.3756957875       65.4541252819      -27.8760683916
C                38.0394181164       66.6642706129      -27.8054770673
H                43.3312544083       69.1530522530      -27.7719999440
H                41.7626057058       68.2408530903      -30.0935313920
H                41.6305193800       67.4637302582      -27.2967760238
H                40.1147556627       68.2384814249      -27.7841050211
H                40.0916601801       66.6490085289      -29.8121102972
H                41.4127114185       65.7647456450      -29.0284568321
H                37.2371704404       66.2224533274      -27.2297320020
H                38.3802681333       67.5559247087      -27.2883158669
H                37.7241264945       66.9239906027      -28.8096367983
N                41.8299862697       71.0684968128      -29.4685826127
C                41.4623583468       72.4005172093      -29.9002237996
C                42.2773910510       72.8820133973      -31.1287498572
O                42.3192016696       74.0753971940      -31.3881480406
C                41.6364326489       73.4089495841      -28.7603302418
H                42.8212337563       70.9984763899      -29.2790907962
H                40.4120943638       72.3690776939      -30.2178604359
H                41.2664693547       74.3805342882      -29.0698054633
H                41.1081813808       73.0581975076      -27.8798221718
H                42.6957668941       73.4930677300      -28.5340310638
N                42.8218186458       71.9380230773      -31.9332949481
C                43.6315433334       72.3389431594      -33.0753512000
C                43.6542084070       71.4087708362      -34.3099827788
O                44.2134666514       71.8205818975      -35.3267137875
C                45.0909352474       72.5900357306      -32.6715163754
H                42.9675308875       71.0093042612      -31.5600372743
H                43.1995776998       73.2884515414      -33.4147179644
H                45.6534989587       72.8789210400      -33.5539773033
H                45.1439636841       73.3740428281      -31.9226680675
H                45.5214465979       71.6838664071      -32.2510007150
N                43.1539677628       70.1747430691      -34.2251265278
C                43.1444198524       69.2806820685      -35.3684267137
C                41.7527329043       69.2825015001      -36.1114565159
O                41.7836196940       68.8741679724      -37.2836741308
C                43.5123209226       67.8638250965      -34.9480717527
O                40.7571570683       69.6655692379      -35.4732077132
H                42.5880502581       69.9086737293      -33.4342064136
H                43.8808819284       69.6723222266      -36.0769412615
H                43.4436123733       67.2165213747      -35.8179646371
H                44.5219834863       67.8314469529      -34.5451019050
H                42.8183468261       67.5141075469      -34.1863864652
N                48.2377981457       57.1112511194      -28.0536946834
C                47.9993018244       58.4279438072      -27.5248839442
C                46.8993504785       59.0494432738      -28.3571459865
O                45.8690836697       59.5037530567      -27.8688937610
C                49.2328746283       59.3076244682      -27.5418596265
C                49.1360233418       60.2717935847      -26.3770118751
C                50.4835295737       60.9048327127      -26.0660187484
N                50.5752814788       61.2411031763      -24.6508964526
C                50.7040532748       62.4460383228      -24.1007595095
N                50.6198907050       63.5477501111      -24.8375460378
N                50.8799922961       62.5450097442      -22.7777817770
H                49.1908611066       56.7843954606      -28.1030879284
H                47.6078381553       58.3180637586      -26.5030174784
H                50.1157683327       58.6741688932      -27.4236739821
H                49.3111901262       59.8448837972      -28.4873699116
H                48.3801448035       61.0320715197      -26.5714212138
H                48.8190491601       59.7184848154      -25.4899146647
H                51.2788938412       60.1830257291      -26.2750872664
H                50.6703741980       61.7774638524      -26.6884337340
H                50.5782408632       60.4409691598      -24.0333162224
H                50.3006133039       63.4920691764      -25.7919992420
H                50.7031345275       64.4684025857      -24.4390622862
H                51.0709560756       61.7272169175      -22.2211260552
H                51.1001254352       63.4382635584      -22.3658537641
N                42.5962472571       60.9357453662      -28.1102713011
C                41.9438398138       62.0454954834      -28.7752443447
C                40.7413100777       61.6532455949      -29.6023743272
O                40.1217131898       62.5113597396      -30.1862073643
C                42.8905357905       62.7938958812      -29.6755767619
C                43.7884223495       63.6972379775      -28.8497237699
C                44.4442995045       62.9685134830      -27.6614857553
C                44.8397073663       64.3142100543      -29.7715537199
H                43.5187699045       60.6530255687      -28.4046351581
H                41.5300314229       62.7293117073      -28.0185443874
H                43.4853291403       62.0704823403      -30.2393397299
H                42.3191602949       63.3892119173      -30.3862237494
H                43.1925481163       64.5143502415      -28.4320028222
H                45.1445457161       63.6537703297      -27.1864626571
H                43.7185936875       62.6789616977      -26.9099079223
H                45.0087754261       62.0951697337      -27.9803958015
H                45.3061528276       65.1682638208      -29.2881648705
H                45.6165988398       63.5872365376      -29.9968973525
H                44.3925757915       64.6515571680      -30.7015030671
N                38.0998753192       61.0653696774      -26.1708326469
C                37.8803008950       62.3662129898      -25.6034139864
C                37.1068861244       63.3006822762      -26.5048728536
O                36.2911302924       64.0546848770      -25.9880757076
C                39.2222793302       62.9262410601      -25.1560619783
C                39.6884372019       62.1312743548      -23.9436749786
C                39.8076360425       62.7740204212      -22.7135234758
C                39.9613373523       60.7570927468      -23.9417313168
C                40.1632748713       62.1132383500      -21.5477728382
C                40.3731009058       60.0889290072      -22.7921807204
C                40.5070162944       60.7693592605      -21.5841909548
O                40.9726344301       60.2016281576      -20.4428242075
H                38.9939338774       60.9481410687      -26.6346642904
H                37.2316478061       62.2332090332      -24.7239001051
H                39.9343569517       62.8347356929      -25.9765917605
H                39.1308555127       63.9746019335      -24.8790503464
H                39.5716583279       63.8263028861      -22.6528217247
H                39.9175435363       60.1945518216      -24.8555745228
H                40.1032312999       62.5981256072      -20.5900743155
H                40.6320307724       59.0421676274      -22.8147780315
H                41.3565919347       59.3262060045      -20.6651802097
N                37.2828260307       63.3161359485      -27.8256521306
C                36.2755221695       63.9894274062      -28.6448106471
C                34.9061327516       63.3161920969      -28.4146822367
O                33.9439791148       64.0202498584      -28.0776864618
C                36.7328435840       64.0355007697      -30.1113392109
C                36.2638624628       65.2558246695      -30.9260185156
C                36.6365976750       65.0802127025      -32.4301381771
N                36.4236773767       66.2990539266      -33.2548750768
C                36.3677388645       66.4707505037      -34.5876652147
N                36.3604077186       65.4393954999      -35.4292053463
N                36.3371917935       67.7111301172      -35.0999564840
H                37.8662468652       62.6387177084      -28.2949109585
H                36.1417090026       64.9992000270      -28.2503747000
H                37.8255767453       64.0232146784      -30.1115379488
H                36.3899675192       63.1219281830      -30.6036517386
H                35.1846300221       65.3759049609      -30.8203294437
H                36.7408322154       66.1569887784      -30.5398987673
H                37.6975864687       64.8145374777      -32.4725263433
H                36.0431161413       64.2571675460      -32.8281581572
H                36.4715688893       67.1507733461      -32.7096123000
H                36.4625115995       64.4991265698      -35.0871650961
H                36.3515749210       65.5861887304      -36.4259355278
H                36.2682018408       68.5169095182      -34.4991512261
H                36.2017228533       67.8542130992      -36.0869113412
N                33.6202929987       64.6988908636      -25.0396566937
C                33.1349160123       66.0575918795      -24.9588607845
C                31.6919253805       66.0504445709      -25.4305337890
O                30.7012010347       66.4102564264      -24.8156312866
C                33.8403600863       66.9869466262      -25.9185839596
C                35.1643645597       67.4808036078      -25.3785497237
C                35.5421595408       68.6943312699      -26.2109821779
C                35.0943418353       67.8602480699      -23.9096929818
H                34.5176296809       64.4759401192      -25.4553283788
H                33.1441589165       66.4084134910      -23.9243718028
H                34.0117109078       66.4670619855      -26.8611380852
H                33.1907303353       67.8481660258      -26.1013265181
H                35.9133047759       66.6894382096      -25.4902236738
H                36.5595682706       69.0027080914      -25.9862754366
H                35.4619624026       68.4894725570      -27.2735868825
H                34.8716221359       69.5071250853      -25.9520908050
H                36.0122755893       68.3639233817      -23.6118276331
H                34.2676882217       68.5424207218      -23.7293640014
H                34.9846757995       66.9850356017      -23.2777297403
N                38.5233923987       73.2596678908      -20.6068599039
C                39.9533283332       73.1634371957      -20.3762662639
C                40.3842409878       73.6680343003      -18.9688162453
O                40.8816467770       72.9291717130      -18.1289014556
C                40.6874542807       73.9166489461      -21.5116508998
C                40.0148796615       73.8264029918      -22.9040575751
C                40.9333711460       74.4080604281      -23.9836830571
C                39.6097748053       72.4186268487      -23.3425188618
H                38.2344393328       73.4119041563      -21.5636410148
H                40.2276895187       72.0998112767      -20.4090906011
H                40.7613045375       74.9792047036      -21.2735553257
H                41.7045846299       73.5265620406      -21.5750345966
H                39.1322611173       74.4683611718      -22.8885144294
H                40.4246204056       74.3767944406      -24.9446542688
H                41.1655127309       75.4465924192      -23.7676982513
H                41.8565973217       73.8385886454      -24.0634447610
H                39.3138173603       72.4529269301      -24.3849281481
H                40.4570684848       71.7394029361      -23.2633115956
H                38.7818443680       72.0033441232      -22.7786367497
N                42.9155543945       73.2692762808      -14.8834288472
C                44.1249733335       74.0692462759      -14.8254092722
C                44.1191949096       74.9605279937      -13.5527026113
O                45.1682600571       75.2641437062      -13.0027456953
C                44.2357863740       74.8816385048      -16.1112968861
H                42.1301995761       73.7796010578      -15.2650975465
H                44.9812197000       73.3970463364      -14.7150371906
H                45.1970188467       75.3814152094      -16.1636882023
H                44.1275647809       74.2137904325      -16.9619622776
H                43.4467511314       75.6293931528      -16.1422517503
H                47.8089341854       56.5023463757      -27.5484118747
H                46.9941992574       59.1033034299      -29.3511795839
H                42.6911416023       61.1236212218      -27.2352297443
H                40.4668287959       60.6934888806      -29.6617635115
H                38.0621767704       60.4438771407      -25.5209666252
H                34.8074261386       62.3287372626      -28.5379297717
H                33.6904144356       64.3551351230      -24.2108533546
H                31.4673383612       65.7214851926      -26.3477831543
H                38.1249867171       72.4958931770      -20.3462431364
H                40.2583018856       74.6288658655      -18.7219518170
H                43.0564701748       72.5490199672      -15.4043641460
H                43.2530574094       75.2904602158      -13.1772687829
H                41.0850074476       61.7006579695      -18.2649877326
H                44.1259048728       62.3646629712      -16.3114100954
H                48.8570277080       61.3864525695      -19.3551624650
