 527 
 
N                24.0370000000       37.6750000000       15.3450000000
C                23.4360000000       36.8150000000       14.3300000000
C                22.5860000000       35.7280000000       14.9680000000
O                22.8210000000       35.2530000000       16.0720000000
C                24.5750000000       36.1200000000       13.5600000000
C                25.3950000000       37.1390000000       12.7840000000
C                26.6760000000       36.5060000000       12.2420000000
O                27.1240000000       35.4440000000       12.6820000000
N                27.2270000000       37.1630000000       11.2430000000
H                24.5710000000       37.2540000000       16.1040000000
H                22.8420000000       37.4420000000       13.6640000000
H                25.2120000000       35.5850000000       14.2620000000
H                24.1610000000       35.3860000000       12.8690000000
H                24.8290000000       37.5520000000       11.9500000000
H                25.6920000000       37.9690000000       13.4290000000
H                26.8690000000       38.0560000000       10.9230000000
H                28.1010000000       36.8430000000       10.8470000000
N                20.3090000000       39.2380000000        5.5650000000
C                20.5510000000       37.8260000000        5.3620000000
C                22.0280000000       37.6650000000        5.0320000000
O                22.4800000000       38.2370000000        4.0590000000
C                19.7890000000       37.3280000000        4.1260000000
C                19.9090000000       35.8280000000        3.9110000000
C                19.2670000000       34.9780000000        5.0240000000
C                19.2020000000       35.4900000000        2.5970000000
H                19.8360000000       39.7620000000        4.8360000000
H                20.2740000000       37.2760000000        6.2660000000
H                18.7340000000       37.5980000000        4.2310000000
H                20.1830000000       37.8540000000        3.2530000000
H                20.9710000000       35.5530000000        3.8300000000
H                19.4100000000       33.9240000000        4.8030000000
H                19.7260000000       35.1720000000        5.9910000000
H                18.2040000000       35.1970000000        5.0850000000
H                19.2590000000       34.4240000000        2.3980000000
H                18.1550000000       35.7800000000        2.6510000000
H                19.6560000000       36.0210000000        1.7600000000
N                22.7550000000       36.8520000000        5.8350000000
C                24.2200000000       36.7190000000        5.6280000000
C                24.5430000000       35.2750000000        5.2360000000
O                25.6490000000       35.0360000000        4.7870000000
C                25.0550000000       37.1890000000        6.8370000000
C                24.8160000000       38.6880000000        7.0800000000
C                24.6740000000       36.4510000000        8.0960000000
H                22.3230000000       36.3910000000        6.6230000000
H                24.4630000000       37.3300000000        4.7530000000
H                26.1020000000       37.0140000000        6.5780000000
H                25.4090000000       39.0130000000        7.9300000000
H                25.1020000000       39.2610000000        6.2020000000
H                23.7620000000       38.8580000000        7.2920000000
H                25.2820000000       36.7960000000        8.9290000000
H                23.6260000000       36.6170000000        8.3400000000
H                24.8340000000       35.3800000000        7.9830000000
N                23.6090000000       34.3050000000        5.2920000000
C                23.9220000000       32.9550000000        4.7910000000
C                22.5890000000       32.3040000000        4.5010000000
O                21.6480000000       32.5540000000        5.2630000000
C                24.7470000000       32.1540000000        5.8440000000
H                22.6960000000       34.4390000000        5.7020000000
H                24.5180000000       33.0570000000        3.8800000000
H                25.0580000000       31.2110000000        5.4030000000
H                25.6260000000       32.7290000000        6.1070000000
H                24.1420000000       31.9580000000        6.7220000000
N                22.5100000000       31.4980000000        3.4460000000
C                21.3180000000       30.7150000000        3.2880000000
C                21.6410000000       29.5520000000        2.4010000000
O                22.4090000000       29.6860000000        1.4080000000
C                20.2400000000       31.5880000000        2.6140000000
C                18.9670000000       30.7960000000        2.3270000000
S                17.5200000000       31.8890000000        2.0900000000
C                17.9970000000       32.6310000000        0.4870000000
H                23.3220000000       31.3150000000        2.8650000000
H                20.9640000000       30.3750000000        4.2640000000
H                20.0240000000       32.4170000000        3.2900000000
H                20.6570000000       31.9870000000        1.6850000000
H                19.0740000000       30.1730000000        1.4350000000
H                18.7160000000       30.1540000000        3.1720000000
H                17.1970000000       33.3050000000        0.2020000000
H                18.9310000000       33.1750000000        0.5860000000
H                18.0920000000       31.8550000000       -0.2670000000
N                21.0600000000       28.3890000000        2.6980000000
C                21.0960000000       27.2850000000        1.7070000000
C                19.9630000000       26.3420000000        1.9790000000
O                19.5090000000       26.1640000000        3.1250000000
C                22.4450000000       26.5290000000        1.8000000000
C                22.7700000000       26.0380000000        3.1820000000
C                24.2030000000       25.3800000000        3.2330000000
C                24.5230000000       24.9840000000        4.6770000000
N                25.8820000000       24.3880000000        4.7350000000
H                20.4450000000       28.2960000000        3.4970000000
H                21.0040000000       27.7090000000        0.7030000000
H                22.3910000000       25.7070000000        1.0820000000
H                23.2140000000       27.2240000000        1.4550000000
H                22.7530000000       26.8840000000        3.8720000000
H                22.0170000000       25.3310000000        3.5190000000
H                24.2140000000       24.5050000000        2.5880000000
H                24.9250000000       26.1070000000        2.8650000000
H                24.4770000000       25.8580000000        5.3280000000
H                23.7970000000       24.2490000000        5.0170000000
H                26.0770000000       24.0270000000        5.6830000000
H                25.9240000000       23.6020000000        4.0360000000
H                26.6220000000       25.1200000000        4.5210000000
N                19.2420000000       29.4520000000        7.3570000000
C                19.5790000000       30.8780000000        7.1770000000
C                20.3200000000       31.3990000000        8.3980000000
O                20.0580000000       31.0150000000        9.5260000000
C                18.3010000000       31.7530000000        7.0720000000
C                17.5430000000       31.3510000000        5.7950000000
S                15.8630000000       32.0730000000        5.6740000000
C                14.9460000000       31.0630000000        6.9230000000
H                18.6640000000       29.2750000000        8.1760000000
H                20.1760000000       30.9890000000        6.2700000000
H                17.6820000000       31.5540000000        7.9460000000
H                18.5700000000       32.8070000000        7.0280000000
H                18.0440000000       31.7150000000        4.9000000000
H                17.4120000000       30.2730000000        5.7100000000
H                13.9120000000       31.3740000000        6.8460000000
H                15.0720000000       30.0180000000        6.6540000000
H                15.3490000000       31.2620000000        7.9080000000
N                21.1690000000       32.4130000000        8.1560000000
C                21.7200000000       33.2150000000        9.2320000000
C                21.2730000000       34.6520000000        8.9520000000
O                21.4800000000       35.1410000000        7.8350000000
C                23.2630000000       33.1850000000        9.2540000000
C                23.7250000000       34.0330000000       10.4660000000
C                23.7780000000       31.7420000000        9.4560000000
H                21.3550000000       32.6980000000        7.2030000000
H                21.3050000000       32.8510000000       10.1720000000
H                23.6380000000       33.5940000000        8.3150000000
H                24.8060000000       33.9960000000       10.5620000000
H                23.4240000000       35.0710000000       10.3450000000
H                23.2660000000       33.6400000000       11.3670000000
H                24.8630000000       31.7360000000        9.4930000000
H                23.3770000000       31.3440000000       10.3830000000
H                23.4570000000       31.0960000000        8.6410000000
N                24.9670000000       28.1510000000       14.1960000000
C                25.5870000000       28.6790000000       12.9990000000
C                26.8280000000       27.8260000000       12.6020000000
O                27.0720000000       27.5840000000       11.4320000000
C                25.9290000000       30.1770000000       13.1550000000
C                24.6400000000       31.0080000000       13.2520000000
C                26.8360000000       30.6830000000       12.0250000000
C                24.9240000000       32.4390000000       13.7700000000
H                24.8990000000       28.7650000000       15.0030000000
H                24.8810000000       28.5580000000       12.1620000000
H                26.4750000000       30.2740000000       14.1000000000
H                24.1640000000       31.0560000000       12.2730000000
H                23.9510000000       30.5280000000       13.9480000000
H                27.0680000000       31.7320000000       12.1640000000
H                27.7750000000       30.1360000000       12.0090000000
H                26.3480000000       30.5440000000       11.0640000000
H                23.9840000000       32.9810000000       13.8630000000
H                25.3900000000       32.3840000000       14.7490000000
H                25.5800000000       32.9830000000       13.1000000000
N                26.5510000000       25.7870000000        8.9950000000
C                27.2340000000       26.3970000000        7.8710000000
C                28.7290000000       26.2460000000        7.9780000000
O                29.3280000000       26.2990000000        9.0590000000
C                26.9150000000       27.9240000000        7.9700000000
C                25.5130000000       28.2220000000        7.5210000000
C                25.3160000000       28.4170000000        6.1360000000
C                24.4520000000       28.3660000000        8.3870000000
C                24.0410000000       28.6420000000        5.6440000000
C                23.1730000000       28.6080000000        7.8880000000
C                22.9720000000       28.6890000000        6.5200000000
H                26.8170000000       26.1030000000        9.9160000000
H                26.8410000000       25.9800000000        6.9470000000
H                27.0750000000       28.2190000000        9.0080000000
H                27.6270000000       28.4790000000        7.3540000000
H                26.1600000000       28.3510000000        5.4700000000
H                24.6170000000       28.2940000000        9.4530000000
H                23.8830000000       28.7970000000        4.5860000000
H                22.3380000000       28.7320000000        8.5620000000
H                21.9790000000       28.8660000000        6.1320000000
N                29.3270000000       26.0340000000        6.7910000000
C                30.7640000000       26.2600000000        6.7800000000
C                31.0710000000       27.7260000000        6.9870000000
O                30.3440000000       28.6330000000        6.5150000000
C                31.3630000000       25.7920000000        5.4530000000
C                31.0140000000       24.3270000000        5.1930000000
C                31.1990000000       23.9220000000        3.7450000000
C                30.8940000000       22.4170000000        3.6110000000
N                29.4900000000       22.0720000000        3.9940000000
H                28.8070000000       26.2930000000        5.9510000000
H                31.1750000000       25.6860000000        7.6140000000
H                30.9380000000       26.4270000000        4.6690000000
H                32.4390000000       25.9680000000        5.4680000000
H                31.6380000000       23.7130000000        5.8430000000
H                29.9720000000       24.2040000000        5.4910000000
H                30.5320000000       24.5050000000        3.1100000000
H                32.2240000000       24.1040000000        3.4240000000
H                31.0370000000       22.1180000000        2.5740000000
H                31.5880000000       21.8650000000        4.2450000000
H                29.3360000000       21.0660000000        3.8920000000
H                29.2590000000       22.3330000000        4.9600000000
H                28.8060000000       22.6140000000        3.3370000000
N                32.2170000000       28.0540000000        7.5740000000
C                32.4350000000       29.4810000000        7.8920000000
C                32.4890000000       30.3860000000        6.6870000000
O                32.1310000000       31.5810000000        6.7390000000
C                33.7810000000       29.4870000000        8.6330000000
C                33.9180000000       28.0940000000        9.1790000000
C                33.2160000000       27.1870000000        8.1700000000
H                31.6170000000       29.8150000000        8.5430000000
H                34.5700000000       29.6910000000        7.9030000000
H                33.8340000000       30.2690000000        9.3860000000
H                34.9620000000       27.8260000000        9.3270000000
H                33.4000000000       28.0310000000       10.1370000000
H                33.9110000000       26.8610000000        7.3890000000
H                32.7610000000       26.3250000000        8.6590000000
N                32.8940000000       29.8230000000        5.5340000000
C                32.9850000000       30.6470000000        4.3560000000
C                31.6180000000       30.9240000000        3.7230000000
O                31.5060000000       31.6440000000        2.7270000000
C                33.7960000000       29.9030000000        3.2880000000
C                35.2280000000       29.7380000000        3.7430000000
C                35.4550000000       28.6680000000        4.8340000000
O                34.5120000000       27.8080000000        4.9880000000
O                36.5510000000       28.7050000000        5.4340000000
H                33.3510000000       28.9070000000        5.4930000000
H                33.4430000000       31.6150000000        4.5940000000
H                33.3390000000       28.9310000000        3.1010000000
H                33.7590000000       30.4990000000        2.3750000000
H                35.8540000000       29.4330000000        2.8990000000
H                35.6320000000       30.6830000000        4.1170000000
N                30.6030000000       30.2670000000        4.2450000000
C                29.2530000000       30.4490000000        3.7000000000
C                28.5950000000       31.7120000000        4.2250000000
O                27.5460000000       32.1350000000        3.7160000000
C                28.3100000000       29.2360000000        3.9470000000
C                28.7300000000       28.1040000000        3.0390000000
C                28.1140000000       26.7230000000        3.3220000000
O                27.7590000000       26.4140000000        4.4770000000
O                28.1560000000       25.9410000000        2.3410000000
H                30.6870000000       29.7450000000        5.1160000000
H                29.3580000000       30.5910000000        2.6190000000
H                28.4000000000       28.9550000000        4.9970000000
H                27.2890000000       29.5650000000        3.7460000000
H                28.5380000000       28.3660000000        1.9970000000
H                29.8130000000       27.9740000000        3.1470000000
N                29.2010000000       32.3510000000        5.2270000000
C                28.6800000000       33.6080000000        5.6980000000
C                29.2260000000       34.6980000000        4.7600000000
O                30.4260000000       34.7810000000        4.4830000000
C                29.0730000000       33.8620000000        7.1380000000
C                28.0030000000       33.2350000000        8.0710000000
C                28.0900000000       31.6930000000        8.1650000000
C                28.0130000000       33.8530000000        9.4230000000
H                30.1380000000       32.1020000000        5.5080000000
H                27.5960000000       33.5870000000        5.5630000000
H                30.0660000000       33.4570000000        7.3360000000
H                29.1010000000       34.9370000000        7.3150000000
H                27.0300000000       33.4670000000        7.6130000000
H                27.2740000000       31.3140000000        8.7740000000
H                28.0280000000       31.2430000000        7.1780000000
H                29.0330000000       31.4070000000        8.6240000000
H                27.2370000000       33.4250000000       10.0540000000
H                28.9690000000       33.6920000000        9.9180000000
H                27.8400000000       34.9250000000        9.3580000000
N                28.3600000000       35.5950000000        4.3140000000
C                28.7390000000       36.5490000000        3.2610000000
C                28.8130000000       37.9400000000        3.9210000000
O                27.8540000000       38.4100000000        4.5520000000
C                27.6940000000       36.5960000000        2.1770000000
C                27.2940000000       35.2180000000        1.5920000000
C                28.0660000000       37.6520000000        1.1280000000
C                28.4370000000       34.3360000000        1.1260000000
H                27.3660000000       35.4810000000        4.4840000000
H                29.7250000000       36.2590000000        2.8880000000
H                26.7780000000       36.9630000000        2.6710000000
H                26.7420000000       34.6800000000        2.3660000000
H                26.6120000000       35.4010000000        0.7550000000
H                27.2950000000       37.7180000000        0.3630000000
H                28.1810000000       38.6300000000        1.5870000000
H                29.0040000000       37.3930000000        0.6410000000
H                28.0300000000       33.4040000000        0.7450000000
H                29.0080000000       34.8100000000        0.3300000000
H                29.1120000000       34.0970000000        1.9460000000
N                29.9290000000       38.6560000000        3.7440000000
C                30.0710000000       39.9870000000        4.2990000000
C                29.5560000000       40.9740000000        3.2530000000
O                30.0630000000       41.0070000000        2.1190000000
C                31.5810000000       40.2480000000        4.5140000000
O                31.8010000000       41.5910000000        4.9310000000
H                30.7420000000       38.2430000000        3.3000000000
H                29.5160000000       40.0650000000        5.2360000000
H                31.9730000000       39.5400000000        5.2500000000
H                32.1010000000       40.1410000000        3.5630000000
H                31.2810000000       41.7310000000        5.7400000000
N                28.5330000000       41.7670000000        3.6070000000
C                28.0660000000       42.7850000000        2.6830000000
C                27.4340000000       43.9360000000        3.5090000000
O                27.1930000000       43.7950000000        4.6910000000
C                27.1030000000       42.3000000000        1.5860000000
C                25.8060000000       41.6940000000        2.1100000000
C                25.6360000000       40.5310000000        2.8200000000
C                24.5120000000       42.2530000000        1.9510000000
N                24.2980000000       40.2740000000        2.9950000000
C                23.5900000000       41.3140000000        2.4770000000
C                24.0830000000       43.4300000000        1.3460000000
C                22.1990000000       41.5010000000        2.3820000000
C                22.7160000000       43.6460000000        1.2640000000
C                21.8030000000       42.6630000000        1.7200000000
H                28.0400000000       41.6680000000        4.4920000000
H                28.9510000000       43.1730000000        2.1630000000
H                26.8500000000       43.1330000000        0.9330000000
H                27.6240000000       41.5460000000        0.9880000000
H                26.3570000000       39.8000000000        3.1300000000
H                23.8700000000       39.4510000000        3.3910000000
H                24.7700000000       44.1640000000        0.9500000000
H                21.4810000000       40.7600000000        2.7000000000
H                22.2950000000       44.5170000000        0.7780000000
H                20.7430000000       42.8440000000        1.5420000000
O                33.8520000000       26.4810000000        2.8780000000
H                34.2120000000       26.9550000000        3.6490000000
H                32.9610000000       26.2280000000        3.1400000000
O                31.2220000000       25.2110000000       10.7240000000
H                31.5180000000       25.9330000000       11.2790000000
H                30.4820000000       25.5760000000       10.2200000000
O                32.7720000000       34.1570000000        5.4510000000
H                32.7110000000       34.6790000000        6.2590000000
H                31.9150000000       34.2900000000        5.0110000000
O                27.9060000000       23.3210000000        2.3910000000
H                28.0170000000       23.0520000000        1.4630000000
H                27.9740000000       24.2970000000        2.4080000000
O                25.2390000000       31.3670000000        2.2520000000
H                26.0380000000       31.6580000000        2.7170000000
H                25.3340000000       31.6780000000        1.3350000000
O                29.4780000000       33.8260000000       12.6310000000
H                30.0730000000       34.5580000000       12.4020000000
H                28.6030000000       34.2280000000       12.7210000000
O                27.3660000000       40.7910000000        6.0610000000
H                27.6630000000       40.4940000000        6.9460000000
H                27.3230000000       39.9680000000        5.5540000000
O                30.3490000000       28.6770000000       10.3450000000
H                30.7000000000       29.0210000000       11.1750000000
H                29.6610000000       29.2960000000       10.0900000000
O                29.9360000000       26.1170000000        0.1460000000
H                30.7250000000       26.5580000000        0.4580000000
H                29.2900000000       26.1180000000        0.8770000000
O                32.5100000000       37.5100000000        2.9680000000
H                33.3570000000       37.7130000000        3.3690000000
H                32.6940000000       37.2290000000        2.0680000000
O                29.7250000000       37.3200000000        9.7250000000
H                30.6400000000       37.5640000000        9.5650000000
H                29.1880000000       37.9860000000        9.2690000000
O                30.1400000000       31.1520000000        0.1590000000
H                30.4520000000       31.4340000000        1.0270000000
H                29.2240000000       30.8210000000        0.2200000000
O                32.1860000000       36.1040000000        7.2990000000
H                32.9580000000       36.7050000000        7.2370000000
H                31.4100000000       36.6240000000        7.0770000000
O                30.9350000000       35.9320000000       11.7000000000
H                31.6500000000       35.6710000000       11.1020000000
H                30.2910000000       36.3970000000       11.1570000000
O                35.0000000000       33.7070000000        3.6140000000
H                34.8790000000       34.3700000000        2.9290000000
H                34.2770000000       33.8520000000        4.2460000000
O                37.3126278317       29.0553671684        9.0470000000
H                37.0174035131       28.8840236489        8.1500000000
H                38.2130469216       29.4269387802        8.9420000000
O                35.2935680958       29.9462531223       12.0320000000
H                35.6794705252       29.4786557367       11.2880000000
H                34.8268362300       30.7018498173       11.6430000000
O                31.9526344669       32.4755863323        9.4250000000
H                31.2562672453       31.9954429238        9.9120000000
H                31.9691433952       32.1161806350        8.4870000000
O                30.2422979792       33.1677903028       -1.4970000000
H                31.1330394639       33.1589807949       -1.8580000000
H                30.1749166745       32.3944981460       -0.8990000000
O                28.8256597750       28.0474796483       -2.8690000000
H                29.1506142577       27.5226419741       -2.1330000000
H                29.4689486639       28.7352706089       -3.0550000000
O                34.2193807858       37.7937061246        7.2730000000
H                34.7450159566       37.9821329466        6.4930000000
H                33.8891463427       38.6737232907        7.6030000000
O                32.5505102963       35.0991376454        9.7530000000
H                32.2663038343       34.1708776134        9.6540000000
H                32.3760975574       35.4850459202        8.8760000000
O                27.6458988674       30.1768854811       -0.1140000000
H                27.2023272557       29.4011740494        0.2340000000
H                26.9827752024       30.8794493606       -0.1330000000
O                40.5295214682       29.6171903894        5.9690000000
H                40.3154105050       28.6923393227        5.8190000000
H                41.3965501400       29.6489281005        6.3910000000
O                30.2927955966       31.5586610766       11.1980000000
H                30.5860736703       30.9586336009       11.9130000000
H                29.9356758901       32.3341116006       11.6550000000
N                21.3224048120       28.8434984665       -2.6980000000
C                22.2964968577       29.3643215519       -1.7070000000
C                22.5466588135       30.8170283344       -1.9790000000
O                22.4738113354       31.2992038677       -3.1250000000
C                23.6257120630       28.5740532822       -1.8000000000
C                24.2134305363       28.5380950260       -3.1820000000
C                25.4997752520       27.6260806224       -3.2330000000
C                26.0027213118       27.5469524932       -4.6770000000
N                27.1983724525       26.6680239694       -4.7350000000
H                21.0954451745       29.4226040898       -3.4970000000
H                21.8833020865       29.2319958891       -0.7030000000
H                24.3105849449       29.0318186540       -1.0820000000
H                23.4083244074       27.5605797467       -1.4550000000
H                23.4722730447       28.1298174579       -3.8720000000
H                24.4492104967       29.5437121550       -3.5190000000
H                26.2630474803       28.0540543429       -2.5880000000
H                25.2311747834       26.6373102808       -2.8650000000
H                25.2228151089       27.1497896617       -5.3280000000
H                26.2762499836       28.5431869363       -5.0170000000
H                27.6085076233       26.6796490157       -5.6830000000
H                27.9000684199       27.0246509025       -4.0360000000
H                26.9344418569       25.6611651706       -4.5210000000
N                22.7993554715       31.5333448839       -0.8560000000
C                23.3004019999       32.9115068397       -0.9660000000
C                24.8106824660       32.8516243388       -1.1620000000
O                25.5359182903       32.2114790435       -0.4000000000
C                23.0064397851       33.7186643313        0.3150000000
C                23.1798267501       35.2263492985        0.1340000000
C                22.0407237042       35.8573336491       -0.6410000000
C                23.3092272927       35.8322209842        1.5320000000
H                22.9152817879       31.0425546139        0.0210000000
H                22.8335174273       33.3601746408       -1.8460000000
H                21.9830746354       33.5111847653        0.6400000000
H                23.6765819974       33.3619439712        1.1040000000
H                24.1209457660       35.4082833471       -0.4030000000
H                22.1441857340       36.9401321569       -0.6380000000
H                22.0401333601       35.5163561550       -1.6730000000
H                21.0843034182       35.6019021779       -0.1870000000
H                23.4013950939       36.9165816698        1.4920000000
H                22.4329550644       35.5999690049        2.1330000000
H                24.1871297220       35.4476493725        2.0520000000
N                25.3272803571       33.5228505442       -2.2240000000
C                26.7333794445       33.3774154845       -2.5390000000
C                27.2585862270       34.7337306527       -3.0440000000
O                26.5354721809       35.5102009203       -3.6590000000
C                26.9526724769       32.2915888105       -3.6640000000
C                26.7308643502       30.9337717555       -3.0860000000
C                26.0193662370       32.4721226371       -4.9240000000
H                24.7349175997       34.0168529366       -2.8800000000
H                27.2706774467       33.0767880459       -1.6380000000
H                27.9927267376       32.4001619885       -3.9860000000
H                26.8333509577       30.1742597442       -3.8510000000
H                27.4587956364       30.7189577834       -2.3080000000
H                25.7388696901       30.8679569077       -2.6460000000
H                26.4492630060       31.9455195911       -5.7670000000
H                25.0260395630       32.0926149049       -4.7040000000
H                25.9278456179       33.5266409993       -5.1700000000
N                28.5869314482       34.8909692395       -2.9490000000
C                29.3166882122       36.0489934472       -3.5260000000
C                30.4117938355       35.3822148679       -4.3570000000
O                31.4913103110       35.1244374848       -3.8680000000
C                29.8795033804       36.8981689805       -2.3900000000
O                30.4336601814       38.0483412458       -2.9710000000
H                29.1433615382       34.2492040528       -2.3930000000
H                28.6285145657       36.6389451674       -4.1290000000
H                29.0629406971       37.1564970357       -1.6980000000
H                30.6334065004       36.3103704727       -1.8500000000
H                31.1180260218       38.4249848393       -2.4070000000
N                37.4864847933       34.0044962592        7.0680000000
C                36.2824581934       34.6430610144        7.5900000000
C                36.5340973227       35.3049127716        8.9370000000
O                37.3056445418       34.8132717555        9.7620000000
C                35.3556550364       33.4437908579        7.8840000000
C                35.8646804402       32.3254487196        6.9610000000
C                37.3756525945       32.5685292597        6.9010000000
H                35.8594820805       35.3364448965        6.8620000000
H                35.4631613873       33.1299973199        8.9240000000
H                34.3097732261       33.6642704239        7.6880000000
H                35.6141675532       31.3315476715        7.3200000000
H                35.4200311863       32.4412936203        5.9720000000
H                37.8970928090       32.0376902043        7.7050000000
H                37.7866819569       32.2284529987        5.9500000000
N                35.6670559491       36.2731530602        9.2680000000
C                35.7350136997       36.8828593371       10.5910000000
C                35.6651366742       35.8978287785       11.7480000000
O                36.3859961636       36.0843940393       12.7400000000
C                34.6017794416       37.9320400252       10.6950000000
C                34.6316513124       38.6237796231       12.0080000000
C                33.6862349850       39.8462705097       12.0050000000
O                33.4601863847       40.4467428491       10.9580000000
N                33.1831652601       40.2129281864       13.1780000000
H                35.0753574043       36.7083011179        8.5660000000
H                36.7055045863       37.3917988610       10.7030000000
H                34.7323352685       38.6441693506        9.8800000000
H                33.6501090631       37.4156985775       10.5490000000
H                34.3387993701       37.9545451800       12.8190000000
H                35.6397088410       38.9897864796       12.2260000000
H                33.3171734978       39.6390372628       14.0070000000
H                32.4700225422       40.9237287660       13.1820000000
N                34.7585611038       34.9235938298       11.6640000000
C                34.6705956210       33.9432331443       12.7190000000
C                36.0051074472       33.2766754306       13.0190000000
O                36.3036419644       32.9657523821       14.1900000000
C                33.6505392886       32.8324437499       12.3150000000
O                34.0033481059       32.1195265468       11.1580000000
H                34.1292278939       34.8735567353       10.8690000000
H                34.3045854965       34.4212850125       13.6370000000
H                33.5925789605       32.1280535169       13.1520000000
H                32.6751337763       33.3089918446       12.1940000000
H                33.3016732632       32.2301900688       10.4760000000
N                25.7578756213       40.2770376692       -2.7340000000
C                25.4461444462       38.8349719028       -2.7360000000
C                24.4485831440       38.5707987618       -3.8170000000
O                23.6529069201       39.4589504081       -4.2040000000
C                24.6800202756       38.5739378912       -1.4030000000
C                24.9024290559       39.8247145837       -0.5430000000
C                25.3509929354       40.9277791539       -1.4910000000
H                26.3544968940       38.2416593120       -2.8500000000
H                23.6225474307       38.4495345862       -1.6330000000
H                25.0399106936       37.6685894020       -0.9200000000
H                24.0041010007       40.1166644171       -0.0040000000
H                25.6797237901       39.6384006116        0.2000000000
H                24.5227334090       41.6123667355       -1.7070000000
H                26.1788843646       41.4958291353       -1.0610000000
H                24.6158870862       38.2422450437       14.9536909126
H                21.7901580571       35.3661096546       14.4825404448
H                19.7970932127       39.3529863656        6.2962520611
H                19.5463068085       25.8310020086        1.2271703405
H                18.7891923888       29.1571374770        6.6372629926
H                20.8197895958       35.1831318306        9.6678905699
H                24.1202117560       27.9070437008       14.0131476170
H                27.4367465444       27.4690290541       13.3105191518
H                25.6670911067       25.9436292094        8.9304061992
H                27.2196785297       44.8080140379        3.0689342946
H                26.6370164845       40.3945712720       -2.8866341865
H                24.4056089127       37.6696481554       -4.2483708380
H                21.6330670329       28.0754693553       -3.0495967418
H                30.2425651385       35.1532779180       -5.3156185483
H                37.7025392447       34.3728657772        6.2757725250
H                36.6469815144       33.0861004242       12.2762491341
