 385 
 
N                 7.5878402476       97.1121419443       -3.0687307508
C                 6.2676265105       96.4737819120       -3.3019327262
C                 5.4557031649       96.7128992046       -2.0172493340
O                 6.0061379413       96.6037530447       -0.9318167047
C                 6.3892707354       94.9300046280       -3.3906255128
O                 5.1445788565       94.3903468310       -3.1059931894
H                 8.3387183881       96.6424719619       -3.6003171318
H                 7.5760941876       98.1019398600       -3.3074010706
H                 7.7777883607       96.9930414871       -2.0338430666
H                 5.7778205868       96.8875912492       -4.1726197797
H                 6.7710123522       94.6173951818       -4.3679196666
H                 7.0744806063       94.5836939043       -2.6049417748
H                 4.6673616219       94.1624186710       -3.9259383305
N                 4.1912065288       96.9979578491       -2.2390695347
C                 3.3102753387       97.4642853412       -1.1805205858
C                 2.5342987426       96.3300362598       -0.4473729628
O                 2.0503042646       96.4870544147        0.6837026081
C                 2.3472589592       98.5420398280       -1.7539889892
C                 1.8970387660       98.3302736286       -3.2204755145
C                 2.8190291900       99.0045170581       -4.3040734935
O                 2.3280533957       99.9439936981       -4.9388914655
O                 3.9871384948       98.5193215817       -4.4564274126
H                 3.9825771294       97.3795656708       -3.1853210015
H                 3.9141910376       97.9340992948       -0.3943317364
H                 1.4668418108       98.5735585245       -1.1142378232
H                 2.8350854036       99.5153280374       -1.6994964402
H                 1.8115145153       97.2646331503       -3.4519972232
H                 0.9197803218       98.7849316102       -3.3493531884
N                 2.4785631055       95.1872241410       -1.1410398770
C                 1.6914620852       94.0266098264       -0.7692241735
C                 2.5388763893       92.9976355846       -0.0021510602
O                 2.3214733088       92.6873822434        1.1547025985
C                 1.0939376340       93.4046456780       -2.0429304863
H                 2.9811975049       95.1377166113       -2.0278614486
H                 0.9014752835       94.3627161527       -0.0921885321
H                 0.5889312435       92.4647843193       -1.7900561603
H                 0.3619367411       94.0750111308       -2.4688862921
H                 1.8614052570       93.1965067634       -2.7797760881
N                 3.5399466291       92.4928969983       -0.6868023464
C                 4.5712225182       91.6166728805       -0.1604684022
C                 4.9924729738       92.1029058330        1.2469554203
O                 4.9964667923       91.3432325261        2.2033516322
C                 5.7193362006       91.5903801161       -1.2072823071
C                 5.5650644868       90.5568146119       -2.3716778875
C                 4.1354003991       90.3994755156       -2.9135759530
C                 6.5060834400       90.9579019320       -3.5133452867
H                 3.7005632446       92.8032903027       -1.6519673383
H                 4.1804223698       90.5995067910       -0.0143287227
H                 5.7984681628       92.5817230256       -1.6450541186
H                 6.6528137124       91.3602436822       -0.6977216306
H                 5.8579452807       89.5771807481       -1.9800893545
H                 4.1351712282       89.6180060549       -3.6636032251
H                 3.4332743857       90.1152415612       -2.1338625111
H                 3.7952619007       91.3208303545       -3.3867996245
H                 6.4947169324       90.2108699743       -4.2961312053
H                 6.1845008598       91.9018966523       -3.9452329749
H                 7.5211278734       91.0664654377       -3.1478637869
N                 5.3147324279       93.3939469251        1.3184165818
C                 5.4111939292       94.1982490838        2.5322070891
C                 4.8353493770       93.4123870223        3.7421951838
O                 5.5059235637       93.1122695919        4.7272230910
C                 4.6712617449       95.5423540227        2.2556213465
C                 5.1399924514       96.7531576022        3.0644975750
C                 6.3063426983       97.4723797869        2.3554133120
C                 6.7386439882       98.7209897659        3.1338602666
N                 7.8377511482       99.4903642825        2.4415549758
H                 5.3388217458       93.9312430056        0.4577671639
H                 6.4795085895       94.3806672366        2.7550860938
H                 4.8407840157       95.7731754120        1.2018679928
H                 3.6169330059       95.3970075445        2.3941346770
H                 4.3152383647       97.4307739482        3.1750836923
H                 5.4586668347       96.4258674686        4.0660386078
H                 7.1514637032       96.7774720100        2.2670023860
H                 5.9843045622       97.7449245095        1.3606545475
H                 5.8906122490       99.3712965671        3.2821181981
H                 7.1059063878       98.4076098324        4.1304644263
H                 8.1227814479      100.2752780878        3.0291564427
H                 8.6487163777       98.8582999833        2.3047331747
H                 7.5026420733       99.8129580049        1.5399262323
N                 3.5420647305       93.1761793382        3.6174119655
C                 2.6954077506       92.5907072106        4.6389844284
C                 2.4327208710       91.0833950385        4.5149431146
O                 2.2035552968       90.4368502051        5.5148864521
C                 1.3218695163       93.3119599831        4.6608335412
C                 0.2260215230       92.5320440571        3.8810479894
C                 1.4973993291       94.7795685516        4.1168703191
C                -0.5457692058       91.5154198882        4.6997146208
H                 3.0821534547       93.2748928808        2.7155385975
H                 3.1969750828       92.7412076604        5.5988125217
H                 1.0013527379       93.3570122651        5.6986874573
H                -0.5019450041       93.2872037882        3.5268623871
H                 0.6496082025       92.0894694674        2.9804416298
H                 0.6047863290       95.3343204344        4.3921028344
H                 2.3536453842       95.2311158438        4.5700862991
H                 1.5653614811       94.7746145839        3.0398549095
H                -1.2518000934       90.9930900558        4.0461969310
H                 0.0943820010       90.7781647904        5.1595314349
H                -1.1124444272       92.0011675973        5.4836583290
N                 2.4250237495       90.5446384950        3.2711276051
C                 2.2896045210       89.1191832374        3.2153885504
C                 3.3950093215       88.4742471674        4.0681820636
O                 3.2007866846       87.3591326459        4.5601796675
C                 2.1472944128       88.4254327659        1.8398642486
C                 1.1843988152       87.1924602969        1.9469166849
C                -0.2292715569       87.5985707317        1.5984906475
C                 1.5670755290       86.0275924156        1.0743037276
H                 2.6837048092       91.0954910346        2.4521376050
H                 1.3723983651       88.8936590135        3.7834176570
H                 1.7428658509       89.1457967307        1.1348826526
H                 3.1266753394       88.1004971753        1.5023398071
H                 1.2356647863       86.8425190093        2.9866721463
H                -0.9260925398       86.8023613978        1.7674133461
H                -0.5447047019       88.4634942808        2.2196307886
H                -0.2726822610       87.9136763579        0.5654275439
H                 0.7843519131       85.2866832229        1.0706750551
H                 1.7889924478       86.3303506295        0.0580416335
H                 2.4669301646       85.5330973110        1.4800244484
N                 4.5149339772       89.2103703588        4.3086232824
C                 5.5686226837       88.7237316829        5.1738718405
C                 5.3165876519       88.9090761087        6.6851964366
O                 6.0119860482       88.3690793864        7.5298753356
C                 6.9236952097       89.3504367943        4.8702157117
C                 7.9734905252       88.5767667465        5.6634780070
O                 8.0311906543       87.3721654958        5.6532846610
N                 8.8041818744       89.3303449218        6.3970742925
H                 4.7082963681       90.0244676654        3.7381960862
H                 5.6595619342       87.6282360152        5.0330065265
H                 7.1462919720       89.2351091143        3.8077850404
H                 6.9119685364       90.4079112364        5.1280060614
H                 9.5807329982       88.8774588036        6.8517668398
H                 8.7997530720       90.3302782191        6.3209685933
N                 4.3558595865       89.7529025884        7.0474443322
C                 4.2009749326       89.9948487574        8.4417419424
C                 2.9922677143       89.3127098488        9.0424043017
O                 1.8575821131       89.6351084593        8.7525075596
C                 4.0721436164       91.4815897997        8.7474436054
C                 3.9748938931       91.4285153807       10.2481653942
O                 2.9386262858       91.1297573221       10.8248541573
N                 5.1355836713       91.5409452469       10.8972957255
H                 3.6065695393       90.0559937456        6.4064897521
H                 5.1126339067       89.6166908007        8.9109025218
H                 4.9539902523       92.0389920214        8.3972831505
H                 3.1801250726       91.9089716079        8.2882421772
H                 5.1595900437       91.5009533765       11.9123214284
H                 5.9718137473       91.8440604999       10.4286456953
N                 0.0784819229       91.2833411442       10.8214768495
C                -0.5516791211       92.1311467333        9.8062689033
C                -1.4663951356       91.2367642447        8.9652699406
O                -2.5743969185       91.5339228625        8.5618712084
C                 0.4381105785       92.9800896049        8.9270553748
O                 1.1626780439       92.2285415128        7.9852959530
C                 1.3540776937       93.8621906983        9.7997369135
H                 1.1051430406       91.2261150023       10.8271066443
H                -1.1989815225       92.8543953358       10.3311784248
H                -0.2134689905       93.6421105541        8.3526977406
H                 1.2728234032       91.3020121139        8.2644425038
H                 1.9888967721       94.4417154959        9.1539271250
H                 0.7559864483       94.5134050159       10.4227097428
H                 1.9773311644       93.2333829359       10.4443051014
N                -0.9122866847       90.0647358739        8.7304574083
C                -1.6567555668       89.1257640847        7.9529877835
C                -2.9342671672       88.7638083293        8.7411799412
O                -4.0022854638       89.1635016676        8.2619246777
C                -0.6936952385       87.9973104039        7.4623167232
C                -1.1842635272       87.1789075161        6.2195232383
C                -2.3999382550       87.8069687779        5.4716013426
C                -0.0394161747       86.9777074150        5.2392354742
H                 0.0128159167       89.7851262596        9.0465383797
H                -2.0406299714       89.6562330337        7.0746033652
H                 0.2147856144       88.4949747507        7.1831439034
H                -0.4980999094       87.3196048870        8.2843084076
H                -1.5264629740       86.1914133368        6.5790809437
H                -2.7042912008       87.1354415369        4.6815143433
H                -3.2549789457       87.9454809436        6.1429466350
H                -2.1225894139       88.7582462062        5.0474151879
H                -0.3743903887       86.3928828628        4.3922456283
H                 0.2986621486       87.9490337140        4.9087375083
H                 0.7910177584       86.4624515365        5.7097980515
N                -5.3983294581       91.2252201181        8.3412615062
C                -5.9023941646       91.1824319505        7.0091073016
C                -6.7292397137       89.9630608657        6.8235124869
O                -7.6267732517       89.8962412059        6.0050466696
C                -4.7909915358       91.4236407046        5.9598602173
C                -5.1046022529       92.7157156855        5.1753177701
C                -5.5151794652       93.9422778942        6.0110376251
O                -6.4648878794       93.9402754069        6.8210090249
N                -4.8342913709       95.0867376342        5.8030041889
H                -4.3871023555       91.2453527593        8.4798007697
H                -6.6449068124       92.0094568882        6.9112563242
H                -3.8563151220       91.5545156276        6.4834773904
H                -4.7256911815       90.6084564378        5.2612700193
H                -4.2738481109       92.9886073084        4.5410102266
H                -5.9824399746       92.5256770404        4.5344825932
H                -4.1262673090       95.1365026402        5.0702689809
H                -5.1389028846       95.9103360668        6.2457939234
N                -6.0508620907       90.6480470011       -5.7589240238
C                -5.0587525575       90.5269776740       -6.8258579920
C                -4.3581206420       89.1359948323       -6.8722566044
O                -4.0141304708       88.5226449487       -7.8719138251
C                -3.9975824238       91.6767662793       -6.5077794041
C                -2.7394323885       91.1978438062       -5.6631611275
C                -4.6976818256       92.9546535288       -5.9371449589
C                -2.0505023490       92.2891814525       -4.8012338839
H                -5.7187618255       91.2108705755       -4.9983782544
H                -5.5106638131       90.7190502295       -7.7942143205
H                -3.5868412205       91.9424520794       -7.5088450086
H                -3.0104819294       90.3852318533       -5.0326286884
H                -2.0116823450       90.7962090947       -6.4024535662
H                -4.0504178201       93.7871086825       -6.1678051153
H                -5.6287319210       93.0907057343       -6.4773437461
H                -4.8414435415       92.9053190664       -4.8957089846
H                -1.1276919986       91.8459996419       -4.4313309161
H                -1.8126860071       93.1494904778       -5.4001993166
H                -2.6894931542       92.5406400418       -3.9967215129
N                -0.7912184362       86.5582817069      -12.5408665307
C                -0.4040175678       87.7720356168      -11.8857000371
C                 0.4221274186       87.4984047331      -10.6568981267
O                 1.1708172797       88.2892650905      -10.1090428837
C                -1.6815625509       88.4884374021      -11.3926143904
O                -2.0143709142       88.0107675092      -10.1142319784
C                -2.8104389322       88.4615162207      -12.4466548712
H                -1.7398378872       86.2520335898      -12.3390632968
H                 0.1432630787       88.4163255014      -12.6005801487
H                -1.4177612325       89.5488661944      -11.2252115242
H                -2.2703719065       87.0823929784      -10.2059838897
H                -3.6169750149       89.1018058108      -12.1147143755
H                -2.4143677156       88.8729564884      -13.3814696223
H                -3.1875894653       87.4702745391      -12.6335688316
N                 0.2360702332       86.3283339232      -10.1662757552
C                 0.8833867840       85.9458627823       -8.9763698377
C                 2.2572976294       85.4035391134       -9.3817325223
O                 3.3002241187       85.9036544191       -9.0315717035
C                -0.0647927506       85.0483962881       -8.1975409183
C                 0.4650687262       84.8145445877       -6.7967035146
C                 0.8551117620       86.1702476471       -6.1788410226
C                -0.5425255924       84.0417804889       -5.9310317667
H                -0.4871974813       85.6923552442      -10.5372835704
H                 1.0775255296       86.8712410612       -8.4143925656
H                -1.0337553427       85.5312477970       -8.1367794627
H                -0.1643540444       84.0883473344       -8.7006537314
H                 1.3830148266       84.2097285369       -6.8442080078
H                 0.9895766433       86.0364802742       -5.0779182975
H                 1.7832786681       86.5402562645       -6.5488496008
H                 0.0593511701       86.8976863604       -6.2999883277
H                -0.1530032046       83.8884175916       -4.9307232773
H                -1.4790418128       84.5935206646       -5.8493538762
H                -0.7499503756       83.0783619246       -6.3790480198
N                 3.5172411676       86.3880997320      -11.5995284603
C                 4.0940497500       87.7061553886      -11.8455912941
C                 4.6458347127       88.4909183194      -10.5951398976
O                 5.8405215623       88.7740116134      -10.5772297384
C                 3.1052855240       88.5157958942      -12.6487953410
H                 2.5425058350       86.2861556774      -11.7562592017
H                 5.0054386520       87.5615236808      -12.4384511075
H                 3.5947953119       89.3996172895      -13.0565378281
H                 2.7147044242       87.9100442631      -13.4554192608
H                 2.2869523765       88.8601151606      -12.0116351960
N                 3.8447111267       88.8708843878       -9.5729139109
C                 4.4574320763       89.5893332251       -8.4803833754
C                 5.4513397425       88.7099496077       -7.7318116926
O                 6.2114827517       89.1115947395       -6.8733681702
C                 3.4442610466       90.3593361165       -7.6267828779
C                 4.0808200732       91.5523475456       -6.7989842436
C                 3.3079916128       92.8371385536       -6.2418870650
O                 3.6600239151       93.4926035038       -5.2468237658
N                 2.2173460961       93.2249039875       -6.9647907927
H                 2.8459434337       88.6850677597       -9.6034055787
H                 5.1240452370       90.3676739121       -8.9509459411
H                 2.7054202417       90.7985029559       -8.3213453215
H                 2.9272386496       89.7192972253       -6.9389620143
H                 4.6047083953       91.1247214600       -5.9429191322
H                 4.8763628303       92.0261944485       -7.4013352409
H                 1.9224735570       92.7413544938       -7.7607748294
H                 1.7711487657       94.0721206771       -6.6650956733
N                 5.4882766811       87.4560085591       -8.1866413973
C                 6.3426694066       86.3679544854       -7.6674461860
C                 7.7111151469       86.3206910569       -8.3241299186
O                 8.6907565503       86.0138029589       -7.6640056281
C                 5.7104092746       84.9888859067       -7.8549036825
H                 4.6893750898       87.0891308556       -8.7035958118
H                 6.5119595006       86.5752132097       -6.5924560787
H                 6.3282823537       84.2560881686       -7.3534823416
H                 4.7151813937       84.9852034868       -7.4010305093
H                 5.6370724971       84.7682699400       -8.9019387987
N                 7.7080868225       86.5365690011       -9.6426735739
C                 8.9155704063       86.7444092678      -10.4083896979
C                 9.9914166081       87.5439318439       -9.6508059667
O                11.2547067866       87.4557968241       -9.8841422694
C                 8.6202028853       87.7408708684      -11.5698929630
C                 7.7115910836       87.1450942916      -12.6314855150
C                 8.4811443668       86.1453072057      -13.5129597318
N                 7.5859678653       85.0410246194      -13.8424467356
C                 7.4717054362       84.4949635266      -15.0662024736
N                 8.2817734437       84.8100486223      -16.1180383003
N                 6.4648000633       83.5966760056      -15.2075820963
H                 6.8550673469       86.8773900346      -10.0669542803
H                 9.3258198419       85.8056127898      -10.7598213503
H                 8.1451161608       88.6196258205      -11.1525895524
H                 9.5710136166       88.0449951341      -12.0160182819
H                 6.9121390787       86.6124791408      -12.1322313885
H                 7.2896266595       87.9461162978      -13.2316443079
H                 8.8386289809       86.6624947023      -14.4147592843
H                 9.3413080494       85.7535325226      -12.9804094098
H                 6.9751148614       84.7656901673      -13.1336363850
H                 9.0336278956       85.4882090693      -15.9948332455
H                 8.1276213753       84.4256253855      -17.0143247952
H                 5.9525465947       83.2913230226      -14.4220071004
H                 6.3879471463       83.0976308758      -16.0796243184
N                 9.3819248709       88.4601563000       -8.8800925814
C                10.0780974690       89.4834858505       -8.1567808686
C                11.0142920346       88.6957084273       -7.1881341444
O                12.2485370327       88.6416623476       -7.3887145888
C                 9.0504925066       90.5015461790       -7.6243996167
C                 8.6006689118       91.4122074531       -8.8338729855
C                 7.7408310812       92.7957147404       -8.7088667918
O                 7.4950207822       93.2840969751       -9.8340576794
O                 7.3863121863       93.2962487271       -7.5833522477
H                 8.3814803942       88.5273150989       -8.8774718836
H                10.7763678105       90.0124859062       -8.8316923079
H                 8.1931704421       90.0223158601       -7.1820519287
H                 9.5145713023       91.1595360570       -6.8675538684
H                 9.4828287034       91.7684060035       -9.3463046111
H                 8.0135606527       90.8200871925       -9.5133165724
N                10.3316762118       88.0636561762       -6.1681116510
C                11.0741099987       87.7274082228       -4.9823015342
C                11.8032767739       86.3653249446       -4.9989192471
O                11.8945490586       85.5605335214       -5.8807675326
C                10.2986490743       88.1487937307       -3.7328647638
O                11.1602580696       88.1934507609       -2.6325227716
H                 9.3452039162       88.1404300644       -6.1561545126
H                11.9632814281       88.4281407999       -5.0027038158
H                 9.8854770930       89.1466860750       -3.9014023368
H                 9.4867794567       87.4536132301       -3.5538898427
H                10.9544131329       87.5243086021       -1.9609785537
N                 9.9704812742       83.9682005636       -0.5695014896
C                 8.6694435607       83.6264437696       -1.0212186558
C                 8.1658208252       82.4854751017       -0.1316131620
O                 7.3111202294       82.5132552159        0.4966980996
C                 8.7423396968       83.3839748475       -2.4818521605
C                 9.0911994025       84.6756071067       -3.2384794078
C                 9.1487469649       84.4248933453       -4.7518931041
C                 8.0987922909       85.7710460296       -2.9123637845
H                10.7504738223       83.9497428778       -1.2218035045
H                 7.9821307621       84.4834713409       -0.7805485545
H                 9.4686915888       82.6082245798       -2.6675321790
H                 7.7602583560       83.0436329230       -2.8456609058
H                10.0869739847       85.0165937252       -2.9002097652
H                 9.3303015827       85.3413097636       -5.2994654331
H                 9.9895916002       83.7463918793       -4.9629761710
H                 8.2354961614       83.9758855432       -5.0796227287
H                 7.9071489907       86.4224281637       -3.7590078272
H                 7.1170533755       85.3250632524       -2.6735000518
H                 8.3906859415       86.3664842725       -2.0538334536
N                 7.1395498929       83.2741353828        3.3133790828
C                 5.8681354821       84.0502220085        3.5092287063
C                 4.5212285720       83.2995146229        3.2181389932
O                 3.5083872150       83.6302270677        3.7737714777
C                 5.9184969924       85.3370461515        2.6980874060
C                 5.3775650210       85.2459848390        1.2359906216
S                 5.3001964398       86.9750160875        0.4825590222
C                 7.1359841522       87.4131274889        0.3913004182
H                 7.4338253667       83.2162513445        2.3717096271
H                 5.8539582724       84.3151410530        4.5661339421
H                 5.3037648280       86.0951375758        3.2169701289
H                 6.9575033349       85.6939466947        2.7044684186
H                 6.0138276294       84.6285011912        0.6255124839
H                 4.3685529627       84.9023464518        1.2379329658
H                 7.2009675315       88.2361314831       -0.2957983062
H                 7.5007635305       87.6845719415        1.3807478929
H                 7.6690432768       86.5378114876        0.0391762492
H                 3.1131251146       88.5702190205        9.7012676098
H                -0.1454894498       91.5794367150       11.6413330790
H                -2.8667772934       88.2351460119        9.5873248881
H                -5.7007718089       91.9660181648        8.7532649995
H                -6.5579056617       89.1527077445        7.3838449431
H                -6.7977440900       91.0298548733       -6.0850988664
H                -4.1464343708       88.6541625687       -6.0219469007
H                -0.7368908868       86.6676668038      -13.4325410330
H                 2.3230373143       84.5946611385       -9.9660224466
H                 3.9125521717       85.7824166742      -12.1351376868
H                12.2908816214       86.0492559198       -4.1850753528
H                 9.9672379198       84.8111449856       -0.2541696292
H                 8.6571119914       81.6147683537       -0.1091910953
H                 7.8049034507       83.6658633350        3.7758224356
H                 4.5022657424       82.5409112741        2.5668622699
