 335 
 
N                13.1820000000       39.9990000000        6.1550000000
C                13.7380000000       40.9860000000        5.1960000000
C                13.0180000000       42.3220000000        5.3840000000
O                13.6050000000       43.4170000000        5.4420000000
C                13.4960000000       40.3880000000        3.8040000000
C                14.2940000000       41.0140000000        2.6920000000
C                14.1160000000       40.1790000000        1.3290000000
O                13.0410000000       39.5520000000        1.1830000000
O                15.0640000000       40.2170000000        0.5420000000
H                12.7950000000       39.1530000000        5.7580000000
H                14.8070000000       41.1340000000        5.3920000000
H                13.7480000000       39.3240000000        3.8490000000
H                12.4300000000       40.4590000000        3.5670000000
H                13.9610000000       42.0320000000        2.4740000000
H                15.3620000000       41.0390000000        2.9060000000
N                19.5380000000       41.5140000000        8.1040000000
C                20.3470000000       41.3020000000        6.9280000000
C                20.5690000000       39.8060000000        6.7540000000
O                21.0500000000       39.1330000000        7.6840000000
C                21.7280000000       41.9730000000        7.0910000000
C                22.6550000000       41.7090000000        5.8830000000
C                23.9380000000       42.5470000000        5.8890000000
C                24.6840000000       42.4980000000        7.2010000000
N                25.9780000000       43.2180000000        7.1170000000
H                19.9800000000       41.4870000000        9.0190000000
H                19.8030000000       41.6960000000        6.0680000000
H                21.5670000000       43.0430000000        7.2050000000
H                22.1770000000       41.5740000000        8.0020000000
H                22.9040000000       40.6450000000        5.8630000000
H                22.1030000000       41.9120000000        4.9650000000
H                24.5790000000       42.1840000000        5.0850000000
H                23.6730000000       43.5810000000        5.6640000000
H                24.0880000000       42.9680000000        7.9850000000
H                24.8780000000       41.4610000000        7.4800000000
H                26.4290000000       43.2140000000        8.0390000000
H                26.5980000000       42.7460000000        6.4260000000
H                25.8110000000       44.1820000000        6.7750000000
N                20.3090000000       39.2380000000        5.5650000000
C                20.5510000000       37.8260000000        5.3620000000
C                22.0280000000       37.6650000000        5.0320000000
O                22.4800000000       38.2370000000        4.0590000000
C                19.7890000000       37.3280000000        4.1260000000
C                19.9090000000       35.8280000000        3.9110000000
C                19.2670000000       34.9780000000        5.0240000000
C                19.2020000000       35.4900000000        2.5970000000
H                19.8360000000       39.7620000000        4.8360000000
H                20.2740000000       37.2760000000        6.2660000000
H                18.7340000000       37.5980000000        4.2310000000
H                20.1830000000       37.8540000000        3.2530000000
H                20.9710000000       35.5530000000        3.8300000000
H                19.4100000000       33.9240000000        4.8030000000
H                19.7260000000       35.1720000000        5.9910000000
H                18.2040000000       35.1970000000        5.0850000000
H                19.2590000000       34.4240000000        2.3980000000
H                18.1550000000       35.7800000000        2.6510000000
H                19.6560000000       36.0210000000        1.7600000000
N                22.7550000000       36.8520000000        5.8350000000
C                24.2200000000       36.7190000000        5.6280000000
C                24.5430000000       35.2750000000        5.2360000000
O                25.6490000000       35.0360000000        4.7870000000
C                25.0550000000       37.1890000000        6.8370000000
C                24.8160000000       38.6880000000        7.0800000000
C                24.6740000000       36.4510000000        8.0960000000
H                22.3230000000       36.3910000000        6.6230000000
H                24.4630000000       37.3300000000        4.7530000000
H                26.1020000000       37.0140000000        6.5780000000
H                25.4090000000       39.0130000000        7.9300000000
H                25.1020000000       39.2610000000        6.2020000000
H                23.7620000000       38.8580000000        7.2920000000
H                25.2820000000       36.7960000000        8.9290000000
H                23.6260000000       36.6170000000        8.3400000000
H                24.8340000000       35.3800000000        7.9830000000
N                28.3600000000       35.5950000000        4.3140000000
C                28.7390000000       36.5490000000        3.2610000000
C                28.8130000000       37.9400000000        3.9210000000
O                27.8540000000       38.4100000000        4.5520000000
C                27.6940000000       36.5960000000        2.1770000000
C                27.2940000000       35.2180000000        1.5920000000
C                28.0660000000       37.6520000000        1.1280000000
C                28.4370000000       34.3360000000        1.1260000000
H                27.3660000000       35.4810000000        4.4840000000
H                29.7250000000       36.2590000000        2.8880000000
H                26.7780000000       36.9630000000        2.6710000000
H                26.7420000000       34.6800000000        2.3660000000
H                26.6120000000       35.4010000000        0.7550000000
H                27.2950000000       37.7180000000        0.3630000000
H                28.1810000000       38.6300000000        1.5870000000
H                29.0040000000       37.3930000000        0.6410000000
H                28.0300000000       33.4040000000        0.7450000000
H                29.0080000000       34.8100000000        0.3300000000
H                29.1120000000       34.0970000000        1.9460000000
N                29.9290000000       38.6560000000        3.7440000000
C                30.0710000000       39.9870000000        4.2990000000
C                29.5560000000       40.9740000000        3.2530000000
O                30.0630000000       41.0070000000        2.1190000000
C                31.5810000000       40.2480000000        4.5140000000
O                31.8010000000       41.5910000000        4.9310000000
H                30.7420000000       38.2430000000        3.3000000000
H                29.5160000000       40.0650000000        5.2360000000
H                31.9730000000       39.5400000000        5.2500000000
H                32.1010000000       40.1410000000        3.5630000000
H                31.2810000000       41.7310000000        5.7400000000
N                28.5330000000       41.7670000000        3.6070000000
C                28.0660000000       42.7850000000        2.6830000000
C                27.4340000000       43.9360000000        3.5090000000
O                27.1930000000       43.7950000000        4.6910000000
C                27.1030000000       42.3000000000        1.5860000000
C                25.8060000000       41.6940000000        2.1100000000
C                25.6360000000       40.5310000000        2.8200000000
C                24.5120000000       42.2530000000        1.9510000000
N                24.2980000000       40.2740000000        2.9950000000
C                23.5900000000       41.3140000000        2.4770000000
C                24.0830000000       43.4300000000        1.3460000000
C                22.1990000000       41.5010000000        2.3820000000
C                22.7160000000       43.6460000000        1.2640000000
C                21.8030000000       42.6630000000        1.7200000000
H                28.0400000000       41.6680000000        4.4920000000
H                28.9510000000       43.1730000000        2.1630000000
H                26.8500000000       43.1330000000        0.9330000000
H                27.6240000000       41.5460000000        0.9880000000
H                26.3570000000       39.8000000000        3.1300000000
H                23.8700000000       39.4510000000        3.3910000000
H                24.7700000000       44.1640000000        0.9500000000
H                21.4810000000       40.7600000000        2.7000000000
H                22.2950000000       44.5170000000        0.7780000000
H                20.7430000000       42.8440000000        1.5420000000
N                27.2220000000       45.0640000000        2.8450000000
C                26.6630000000       46.2210000000        3.5260000000
C                25.3700000000       46.6520000000        2.8100000000
O                25.4130000000       46.9690000000        1.6020000000
C                27.5780000000       47.4650000000        3.4830000000
C                26.9150000000       48.5030000000        4.4340000000
C                27.8220000000       49.6710000000        4.8000000000
C                27.1320000000       50.5680000000        5.8280000000
N                28.1140000000       51.4390000000        6.5450000000
H                27.5120000000       45.1610000000        1.8780000000
H                26.4650000000       45.9100000000        4.5510000000
H                28.5710000000       47.2030000000        3.8480000000
H                27.6450000000       47.8400000000        2.4660000000
H                26.0000000000       48.8830000000        3.9760000000
H                26.6390000000       47.9820000000        5.3500000000
H                28.7420000000       49.2610000000        5.2250000000
H                28.0820000000       50.2380000000        3.9080000000
H                26.3920000000       51.1870000000        5.3190000000
H                26.6150000000       49.9570000000        6.5690000000
H                27.6720000000       51.9530000000        7.3490000000
H                28.8570000000       50.8460000000        6.9440000000
H                28.5430000000       52.1010000000        5.8870000000
N                24.2660000000       46.6540000000        3.5660000000
C                22.9920000000       47.0800000000        2.9480000000
C                22.9900000000       48.5810000000        2.5570000000
O                23.3880000000       49.4580000000        3.3430000000
C                21.8530000000       46.7970000000        3.9190000000
O                20.6320000000       47.3510000000        3.4660000000
H                24.3020000000       46.4260000000        4.5680000000
H                22.8360000000       46.5100000000        2.0260000000
H                21.7380000000       45.7120000000        4.0370000000
H                22.1020000000       47.2410000000        4.8930000000
H                20.0410000000       47.4830000000        4.2310000000
O                19.3430000000       45.5820000000        1.9530000000
H                19.7690000000       46.3700000000        2.3310000000
H                18.9860000000       45.8410000000        1.0820000000
O                28.2590000000       39.8270000000        8.4240000000
H                28.8500000000       40.5750000000        8.5890000000
H                27.5710000000       39.8530000000        9.1320000000
O                17.4310000000       41.3860000000        1.3200000000
H                17.4670000000       41.4280000000        0.3610000000
H                17.3320000000       42.3230000000        1.5720000000
O                27.3660000000       40.7910000000        6.0610000000
H                27.6630000000       40.4940000000        6.9460000000
H                27.3230000000       39.9680000000        5.5540000000
O                28.4730000000       45.1240000000        0.2500000000
H                29.1830000000       45.7540000000        0.0830000000
H                27.7870000000       45.3370000000       -0.4060000000
O                18.7870000000       40.9520000000        3.7710000000
H                18.5390000000       41.7740000000        4.2160000000
H                18.3270000000       40.9720000000        2.9200000000
O                32.5100000000       37.5100000000        2.9680000000
H                33.3570000000       37.7130000000        3.3690000000
H                32.6940000000       37.2290000000        2.0680000000
O                34.4570000000       42.0470000000        6.6100000000
H                35.0930000000       42.7230000000        6.3650000000
H                33.7960000000       42.0010000000        5.9060000000
O                30.8560000000       44.9190000000        4.6960000000
H                31.2750000000       44.0600000000        4.5850000000
H                30.5820000000       45.1960000000        3.8200000000
O                30.2400000000       42.0820000000        7.9330000000
H                31.0700000000       41.6560000000        8.1660000000
H                30.2810000000       42.9790000000        8.2740000000
O                29.5230000000       42.7650000000       -0.9450000000
H                29.8870000000       42.2010000000       -0.2520000000
H                29.1670000000       43.5490000000       -0.4890000000
O                32.1860000000       36.1040000000        7.2990000000
H                32.9580000000       36.7050000000        7.2370000000
H                31.4100000000       36.6240000000        7.0770000000
O                19.7850000000       43.7630000000        4.2990000000
H                20.5570000000       43.5110000000        3.7830000000
H                19.1550000000       44.0860000000        3.6380000000
O                26.5374152437       45.3528354367       -1.7730000000
H                26.2774365534       44.4891317372       -1.4430000000
H                27.0852010496       45.1760425893       -2.5640000000
O                29.1026772979       47.3696712241       -3.4690000000
H                28.8570120742       46.4391758733       -3.5690000000
H                28.2843152311       47.8371159027       -3.2840000000
O                33.3324184355       40.2214422695        8.1970000000
H                33.4434613755       40.3397742833        9.1550000000
H                33.8433248235       40.9183580913        7.7610000000
O                34.2193807858       37.7937061246        7.2730000000
H                34.7450159566       37.9821329466        6.4930000000
H                33.8891463427       38.6737232907        7.6030000000
O                17.3323865356       43.9204128442        2.4990000000
H                16.9871988060       43.7522955301        3.4040000000
H                16.9457666441       44.7560581395        2.2140000000
N                18.7669890760       41.6356083556       -4.1600000000
C                19.0284672607       41.3547148546       -2.7500000000
C                19.0732472212       42.6911536879       -1.9600000000
O                18.4986601451       42.8143676970       -0.8910000000
C                20.4223375652       40.6964606680       -2.6270000000
C                20.8306092880       40.5973133009       -1.1480000000
C                20.3878614523       39.3301750472       -3.2780000000
H                19.5093293275       41.4718373235       -4.8260000000
H                18.2328078823       40.7348373235       -2.3300000000
H                21.1377674702       41.3392997234       -3.1540000000
H                21.7374617358       40.0065987863       -1.0590000000
H                21.0153918259       41.5792605570       -0.7200000000
H                20.0424639927       40.1284209961       -0.5630000000
H                21.3744933551       38.8732784632       -3.2370000000
H                19.6726994966       38.6828718902       -2.7740000000
H                20.1078262446       39.4052102550       -4.3270000000
N                19.7187867081       43.7370464983       -2.5740000000
C                19.9126166501       44.9713231908       -1.8240000000
C                18.5467271077       45.6411132758       -1.5680000000
O                18.2633033686       46.3100175919       -0.5630000000
C                20.7171868806       45.9577666733       -2.6430000000
C                22.2464699240       45.7529707429       -2.4910000000
C                22.7414819353       46.3135847890       -1.1840000000
O                21.9916339516       46.8263595947       -0.3780000000
N                24.0661887178       46.2851253366       -0.9880000000
H                20.3077757079       43.5828876255       -3.3850000000
H                20.3672281188       44.7719130293       -0.8470000000
H                20.4296113102       45.8598621721       -3.6920000000
H                20.4813246287       46.9762920771       -2.3210000000
H                22.4817796170       44.6914023992       -2.5700000000
H                22.7566877066       46.2692476205       -3.3070000000
H                24.7353475906       45.9821081706       -1.6830000000
H                24.4490219277       46.6620387662       -0.1260000000
N                15.7393906793       44.1715626037       -1.1180000000
C                14.8239518460       43.4871491742       -0.2370000000
C                13.8035662622       42.6105088486       -0.9910000000
O                12.6773998422       42.4810863057       -0.4890000000
H                16.7090103857       43.8861320081       -1.1120000000
H                15.3675614279       42.8275897588        0.4430000000
H                14.2464044419       44.2194906219        0.3300000000
N                14.1728508719       42.0188891422       -2.1300000000
C                13.2109934543       41.3688750591       -2.9980000000
C                13.3677634753       39.8393414176       -2.9940000000
O                12.7851156026       39.1265171359       -3.8140000000
C                13.3713773364       41.8690820266       -4.4410000000
C                13.0543733777       43.3661489891       -4.5670000000
C                13.3279149365       43.8023611114       -6.0330000000
C                11.5872646715       43.6472558086       -4.2520000000
H                15.0874795066       42.2167058767       -2.5270000000
H                12.2127064522       41.6019588671       -2.6140000000
H                14.4051617610       41.6865148791       -4.7420000000
H                12.7051672859       41.2869916826       -5.0760000000
H                13.6912366407       43.9370694602       -3.8870000000
H                13.1306840818       44.8639749725       -6.1470000000
H                14.3641012849       43.6096337098       -6.2940000000
H                12.6788555211       43.2405649960       -6.6970000000
H                11.3168594797       44.6516113394       -4.5660000000
H                10.9355834778       42.9500007464       -4.7750000000
H                11.3812653621       43.5860570788       -3.1850000000
N                14.2248575929       39.3088108590       -2.0590000000
C                14.3654840204       37.8392387417       -2.0770000000
C                13.0611972034       37.0423297764       -1.8700000000
O                12.6233602199       36.1486856773       -2.6360000000
C                15.4148453966       37.3896915227       -1.0130000000
C                16.7699097817       38.0646511601       -1.4060000000
C                15.4993237663       35.8553706941       -0.9020000000
C                17.8432108668       37.8656391488       -0.2850000000
H                14.4455164657       39.7826184801       -1.1870000000
H                14.7362967963       37.5729721737       -3.0730000000
H                15.1041255421       37.7818740975       -0.0350000000
H                17.1258161696       37.6362032134       -2.3460000000
H                16.5917673843       39.1292028433       -1.5320000000
H                16.2037935283       35.5611932740       -0.1260000000
H                14.5284611940       35.4449539966       -0.6320000000
H                15.7963308079       35.4229394079       -1.8570000000
H                18.7834753630       38.3230532689       -0.5740000000
H                17.4936871648       38.3370319592        0.6300000000
H                18.0136212134       36.8104797704       -0.0870000000
N                29.1343470354       43.0428176296       -6.9400000000
C                29.0304411530       44.1767878971       -6.0320000000
C                28.1527766199       43.9229474606       -4.8150000000
O                28.0749573080       44.7417344626       -3.8930000000
C                28.5549308435       45.4483959128       -6.7530000000
O                27.1917984352       45.4154105015       -7.1270000000
H                28.6031618832       43.0848573016       -7.8030000000
H                30.0308255407       44.3640713107       -5.6210000000
H                28.6729961043       46.2879008825       -6.0660000000
H                29.1937588987       45.6059132639       -7.6310000000
H                27.0778812321       44.7307208850       -7.8210000000
N                27.5404621422       42.7415072461       -4.7290000000
C                26.8131084982       42.2973207126       -3.5520000000
C                26.4656119513       40.8092023874       -3.7100000000
O                26.7928895194       40.2083410112       -4.7270000000
H                27.6526615627       42.0291721493       -5.4420000000
H                27.4509461724       42.4265534540       -2.6680000000
H                25.8951316947       42.8793031764       -3.4230000000
N                25.7578756213       40.2770376692       -2.7340000000
C                25.4461444462       38.8349719028       -2.7360000000
C                24.4485831440       38.5707987618       -3.8170000000
O                23.6529069201       39.4589504081       -4.2040000000
C                24.6800202756       38.5739378912       -1.4030000000
C                24.9024290559       39.8247145837       -0.5430000000
C                25.3509929354       40.9277791539       -1.4910000000
H                26.3544968940       38.2416593120       -2.8500000000
H                23.6225474307       38.4495345862       -1.6330000000
H                25.0399106936       37.6685894020       -0.9200000000
H                24.0041010007       40.1166644171       -0.0040000000
H                25.6797237901       39.6384006116        0.2000000000
H                24.5227334090       41.6123667355       -1.7070000000
H                26.1788843646       41.4958291353       -1.0610000000
H                13.8294566072       39.7314646532        6.7199998053
H                12.0217828587       42.3456792915        5.4676103971
H                19.1557043287       42.3277358669        8.0629639360
H                23.8540406410       34.5594781860        5.3516007587
H                28.6690459572       34.7764350553        4.1031872213
H                22.6633851207       48.8621925144        1.6546400438
H                29.9916707788       42.9381581475       -7.1930659831
H                24.4056089127       37.6696481554       -4.2483708380
H                18.0827171521       41.1257477032       -4.4460315528
H                17.8117362665       45.5507169769       -2.2400245327
H                15.4711099752       44.0663506992       -1.9706170999
H                12.4870022231       37.2218396617       -1.0712032013
