 309 
 
N                 2.5380348219       41.9149770200       72.9939017516
C                 1.4977198806       42.3569296930       73.8964175583
C                 0.2410450214       42.7831419853       73.1343302851
O                -0.8471961405       42.8117711408       73.6930668499
C                 1.9659024471       43.5114965980       74.7943459284
C                 2.3816455376       43.0935252393       76.2072340152
C                 1.2080996284       42.5993536555       77.0595937271
N                 1.5489967786       42.7183887544       78.4691029290
C                 0.7257004814       42.5056944774       79.4892333937
N                -0.5398142164       42.1567125165       79.3145254696
N                 1.1955057962       42.6322573288       80.7366887617
H                 3.3424317787       42.5163490112       72.8695939530
H                 1.1841181616       41.4953978852       74.5004122137
H                 2.8079956360       43.9969223546       74.2982127374
H                 1.1600064974       44.2444679632       74.8658004755
H                 3.1524584345       42.3259111064       76.1445694823
H                 2.8101114546       43.9784102270       76.6805184733
H                 0.3193808456       43.1995559356       76.8415165231
H                 0.9759151801       41.5536912334       76.8374320197
H                 2.5007424361       42.9854280006       78.6783143983
H                -0.9698200296       42.0416285521       78.4020240099
H                -1.1389364627       42.0493802699       80.1154300848
H                 2.1355999318       42.9524368463       80.9157483230
H                 0.5727003614       42.5735779792       81.5238886904
N                 2.1935272325       37.6840735921       79.7126202986
C                 3.3523254294       38.3914548936       80.2243849744
C                 4.6214355728       37.8893664639       79.5384494232
O                 4.9301538465       36.6972605610       79.5497022525
C                 3.4792546809       38.1902057569       81.7472767820
C                 2.3552175894       38.9512978637       82.4570083691
C                 4.8498304789       38.6461386170       82.2385356892
C                 2.0857585051       38.4263489572       83.8603224963
H                 2.0158707358       36.7621439551       80.1099015054
H                 3.1945890786       39.4503818512       80.0142655726
H                 3.3671186965       37.1206234669       81.9525574198
H                 2.6145780549       40.0105382133       82.5122328313
H                 1.4409685147       38.8509955686       81.8677240316
H                 4.9162337958       38.5200580230       83.3163429265
H                 5.6493970097       38.0619519086       81.7897541816
H                 5.0115450867       39.6970552798       82.0118433407
H                 1.2179723655       38.9261456111       84.2819891679
H                 1.9043925330       37.3534093930       83.8405245814
H                 2.9260679662       38.6096964924       84.5234475109
N                 5.3792988576       38.7906479822       78.9219692962
C                 6.5764981032       38.3733568169       78.2010871865
C                 7.7975451686       38.3389909530       79.1344903615
O                 8.2211440778       39.3435310024       79.7020505638
C                 6.7210009731       39.4515099259       77.1276009161
C                 6.2270206668       40.7086508633       77.8396406193
C                 5.0887802984       40.2040215630       78.7313619218
H                 6.4184500659       37.3698614041       77.7990022444
H                 7.7458214283       39.5556840768       76.7860796521
H                 6.0654775286       39.2137078231       76.2896512743
H                 7.0157765006       41.1311408579       78.4593780481
H                 5.8878146203       41.4719514237       77.1444509268
H                 5.0719012555       40.7358892101       79.6849548250
H                 4.1190855869       40.3079973516       78.2345686701
N                -0.9824766220       35.2470528337       83.2818195944
C                -1.0268431462       36.2122912601       84.3586849398
C                -0.9027769097       35.5267640504       85.7223512630
O                -0.1809419755       35.9937787838       86.6044343966
C                -2.3163713784       37.0229320289       84.1854668120
C                -2.3444657802       38.3308762323       84.9766781112
C                -3.4838860738       39.2054119060       84.4705843594
O                -4.6509839994       38.8479592524       84.5085971049
N                -3.1131659785       40.3907987966       83.9645628236
H                -1.7745150455       35.2410544493       82.6579042226
H                -0.1572694619       36.8779234080       84.2761929730
H                -2.3984139975       37.2714202307       83.1228111723
H                -3.1771684639       36.4071644191       84.4535182088
H                -2.5245609698       38.1240242807       86.0324739682
H                -1.3927579505       38.8497870387       84.8706710943
H                -2.1535429981       40.6880471140       83.9381926462
H                -3.8244015966       41.0150792667       83.6167311726
N                -1.6033850745       34.4135487626       85.8876256076
C                -1.6776841460       33.7523564441       87.1680499196
C                -1.0117998576       32.3699936380       87.1194629031
O                -1.5550863440       31.3398642870       87.4818467223
C                -3.1195596237       33.6626467482       87.6988636244
C                -4.2010973521       33.7591174345       86.6219202855
C                -4.0507541818       32.6633590168       85.5302737722
O                -3.2725694305       32.9226404320       84.5724333161
O                -4.7197752721       31.6297042624       85.6525106806
H                -2.2214816626       33.9772491891       85.1649094020
H                -1.0693255572       34.3440151381       87.8697024358
H                -3.2229358976       32.7015060978       88.2070706553
H                -3.2854267500       34.4611391143       88.4251497821
H                -5.1731265298       33.6220612397       87.0980630671
H                -4.1787067753       34.7434463456       86.1468384349
N                 4.5882894825       33.3968380770       94.2823612883
C                 4.0294889334       34.5514597657       93.6068130867
C                 3.5273234863       34.1748830818       92.2150770804
O                 4.0045203199       33.2334588184       91.5911839191
C                 5.0902401938       35.6330764986       93.4265575329
H                 5.5998263177       33.3297380552       94.3108825835
H                 3.1756477738       34.9242616030       94.1847083249
H                 4.7808371806       36.3434918697       92.6645649736
H                 5.2383921862       36.1834189781       94.3522629107
H                 6.0302639040       35.1761828330       93.1260800656
N                 2.5702894866       34.9823222771       91.7622115442
C                 2.0948201829       34.9614690046       90.4020347553
C                 2.9717126523       35.8285212315       89.5020495699
O                 3.6118546775       36.7873444139       89.9257459503
C                 0.6625229365       35.5451899960       90.2947815377
O                 0.6687381947       36.9223220033       90.5944772008
C                -0.3181236928       34.7750488380       91.1735628105
H                 2.2421632377       35.7500080395       92.3476486304
H                 2.1155239772       33.9327974415       90.0313778427
H                 0.3619958361       35.4822495813       89.2403614672
H                 0.8381746507       37.0099340977       91.5650167695
H                -1.3215620346       35.1628430953       91.0240142544
H                -0.3008402030       33.7185798664       90.9240246847
H                -0.0484666069       34.9054530251       92.2195895960
N                 2.9110268564       35.4897336558       88.2172968364
C                 3.6174775023       36.2333717100       87.2018707135
C                 3.1075276799       37.6626734173       87.1163859533
O                 3.8710688404       38.5798881288       86.8302476499
C                 3.4982356454       35.5240944321       85.8601007672
C                 4.3453311387       34.2684273583       85.8737594423
S                 6.1158684108       34.7169745674       85.8941414643
C                 6.7653899929       33.0383642632       86.0607691158
H                 2.5293649073       34.5823120506       87.9712120692
H                 4.6837977670       36.3077457943       87.4635160297
H                 2.4543259397       35.2759961423       85.6554445017
H                 3.8496745005       36.1921992405       85.0720390370
H                 4.1415505911       33.6700218114       86.7630162558
H                 4.1567641554       33.6836160034       84.9796724501
H                 7.8116074602       33.1193883909       86.3297771370
H                 6.2152305445       32.5361350528       86.8517261794
H                 6.6618936755       32.5186896427       85.1146142944
N                 1.8122735391       37.8338808012       87.3517910724
C                 1.2226117954       39.1556371197       87.4398813892
C                 2.0143856696       39.9731065697       88.4585354187
O                 2.4587700938       41.0821946811       88.1968046749
C                -0.2329878430       39.0371148331       87.8718560485
H                 1.1711139651       37.0475008072       87.3707052230
H                 1.3118921482       39.6637084336       86.4717648150
H                -0.7270091042       40.0018127783       87.8179513195
H                -0.7370773871       38.3292087626       87.2223851762
H                -0.2962941448       38.6564353873       88.8881833304
N                 2.1364895338       39.3992058740       89.6556666122
C                 2.8952115819       40.0490293238       90.6973066269
C                 4.3242689241       40.3107370082       90.2117103839
O                 4.8147519690       41.4357760048       90.2710284005
C                 2.8351571030       39.2185032389       91.9830929211
C                 1.4473844678       39.3128894542       92.6228111149
C                 1.1363778490       38.2049389602       93.6732436189
O                 1.2538374360       37.0110289009       93.2915949531
O                 0.7449558371       38.5719201838       94.7887437775
H                 1.7756233282       38.4686378692       89.8391495828
H                 2.4656188962       41.0436264775       90.8867816755
H                 3.0740055943       38.1802988607       91.7429959086
H                 3.5925271493       39.5789959553       92.6841986809
H                 1.3330775046       40.2722556871       93.1199648480
H                 0.6820790191       39.2170762746       91.8491228799
N                 4.9828769232       39.2735744801       89.6896186541
C                 6.3672670746       39.4669980626       89.3089216623
C                 6.4802598234       40.6418444846       88.3293998256
O                 7.4375909075       41.4085105844       88.3392331828
C                 6.9908847773       38.2107173069       88.6896086059
C                 6.8198516514       36.9589456905       89.5600316335
C                 8.4736787439       38.4596285566       88.4236711136
C                 7.3340673324       37.1135083753       90.9860489211
H                 4.5663852627       38.3505287376       89.6800196825
H                 6.9345166730       39.7662370523       90.2030334229
H                 6.4815769400       38.0293843728       87.7352621456
H                 5.7697660692       36.6736445832       89.5968716746
H                 7.3635794452       36.1495864651       89.0672795492
H                 8.9192021389       37.5694421556       87.9895948166
H                 8.6124932531       39.2932424482       87.7412801677
H                 8.9897165848       38.7034052552       89.3474229959
H                 7.2665736534       36.1599158931       91.5012425029
H                 8.3710222119       37.4353538433       90.9977675969
H                 6.7416283407       37.8397445147       91.5398300128
N                 5.5274878051       40.7020412662       87.4033124433
C                 5.5665473069       41.6649042511       86.3170010431
C                 5.3468365706       43.0689371687       86.8738822832
O                 6.0858575583       44.0120858449       86.6133602193
C                 4.4885343344       41.3017772660       85.2872954604
C                 4.6367454184       42.0701419357       84.0044334913
C                 5.7286564109       41.8240018352       83.1785339540
C                 3.7009362246       43.0160717537       83.6103812141
C                 5.8742716531       42.4804395975       81.9726820564
C                 3.8409369069       43.6891416802       82.4101991495
C                 4.9251225653       43.4206497546       81.5740901486
O                 5.0042699435       44.0727078052       80.3911138095
H                 4.8085563763       39.9882500251       87.3650478665
H                 6.5675434360       41.6468166710       85.8651638984
H                 4.5910651454       40.2335177246       85.0876478163
H                 3.5091035264       41.4704058949       85.7352809581
H                 6.4688723817       41.1015416622       83.4867186360
H                 2.8652630027       43.2301747909       84.2572388851
H                 6.7245000037       42.2700338302       81.3420170533
H                 3.1480210798       44.4655026029       82.1255090336
H                 5.8586893395       43.8587725732       79.9626585326
N                 4.2463884554       43.1844217611       87.6137307241
C                 3.9160791691       44.3976390399       88.3291147962
C                 5.1640305456       45.0264829349       88.9574267262
O                 5.3957593727       46.2229642889       88.8221380776
C                 2.8695135388       44.0789718702       89.4006224707
C                 2.5842798614       45.2887224535       90.2845224552
C                 1.2598100419       45.1601993747       91.0382752840
N                 0.9791764049       43.8489480449       91.6118331312
C                 1.3921519782       43.4163139922       92.8047065916
N                 0.6377884750       42.5030186464       93.4364142325
N                 2.4620867629       43.9169400262       93.4004347434
H                 3.7196914321       42.3557629522       87.8687000163
H                 3.5008576837       45.1254213420       87.6192737311
H                 1.9626881763       43.7409516193       88.8980675029
H                 3.2445564735       43.2594176269       90.0148318462
H                 3.4119802965       45.4185678247       90.9783315681
H                 2.5173290258       46.1912921842       89.6773980959
H                 1.2444174800       45.9016673652       91.8398944638
H                 0.4381399352       45.3624875298       90.3515163604
H                 0.1916170540       43.3596839152       91.2133082464
H                -0.2556181980       42.2084927269       93.0780269817
H                 0.9313264972       42.1108690500       94.3156864079
H                 3.3030610508       44.2461279871       92.8726354871
H                 2.7216995351       43.5150291781       94.2885723896
N                 5.9397829676       44.1764665299       89.6297589820
C                 6.9659294154       44.6210904932       90.5411545240
C                 8.3609372408       44.7602103485       89.9345892009
O                 9.1842312706       45.4996784818       90.4587373629
C                 7.0492587089       43.6617421625       91.7244184142
C                 5.7545928678       43.6319826535       92.5944289316
O                 4.8291552874       44.4040917981       92.2620694736
O                 5.7374978201       42.8471697566       93.5553737369
H                 5.6073752032       43.2311371628       89.7769470416
H                 6.6911048492       45.6211357391       90.9062121102
H                 7.2288732340       42.6427963067       91.3732684972
H                 7.8821287082       43.9349992857       92.3760170546
N                 8.5940064964       44.0754407860       88.8012131326
C                 9.9378307646       43.9990163645       88.2797171008
C                10.0274178123       44.1903114026       86.7652895291
O                11.0829705700       43.9713610685       86.1744863889
C                10.6205481745       42.6565792607       88.6105573930
C                10.5480202877       42.2951918258       90.0629724220
C                 9.5818591717       41.3963846675       90.4978049253
C                11.4260776767       42.8219451730       90.9977809587
C                 9.4704222234       41.0439839156       91.8248666495
C                11.3213061376       42.4811287645       92.3366220704
C                10.3261253800       41.6082033769       92.7642410616
O                10.1453322181       41.2739941213       94.0738734105
H                 7.9644833280       43.3110368859       88.5772681075
H                10.4995549558       44.8128173269       88.7568524620
H                10.1176344436       41.8862241637       88.0228999960
H                11.6580261554       42.7339965303       88.2814691281
H                 8.8936841733       40.9939699417       89.7755917114
H                12.1946837160       43.5094308164       90.6761016443
H                 8.7069602543       40.3639845940       92.1722577277
H                11.9809198830       42.9322886903       93.0667993367
H                10.7585102483       41.7658440978       94.6363832150
N                 8.9202259525       44.5582686801       86.1078254031
C                 9.0152425827       44.7713500086       84.6709415167
C                10.1705508367       45.7533546916       84.4213438731
O                10.4541732553       46.6569937911       85.1899533471
C                 7.6952764494       45.2465273678       84.0425417351
C                 7.5199912933       46.7712424757       83.9788468860
C                 6.1503914882       47.2402718453       84.4690699192
C                 6.0902198187       47.1132647662       85.9872413467
N                 4.8415594040       47.6845620453       86.5629631258
H                 8.0329350382       44.6790149386       86.5794503918
H                 9.3113693969       43.8151353545       84.2148789199
H                 7.6408316662       44.8324004038       83.0350769337
H                 6.8902056369       44.7878669007       84.6164995464
H                 8.2859918665       47.2560357514       84.5831930021
H                 7.6828587677       47.1172168728       82.9583414119
H                 6.0305262510       48.2817498857       84.1695680091
H                 5.3698095794       46.6444755851       83.9946720152
H                 6.1414765357       46.0627420428       86.2709429275
H                 6.9458438117       47.6246449615       86.4275319396
H                 4.8181481059       47.3824915989       87.5678345246
H                 4.8455087996       48.7102651679       86.4928679619
H                 4.0227653214       47.3245135740       86.0553450993
N                 9.1446847788       46.3671232805       78.1438884775
C                 8.1098469101       45.6280206075       78.8186698320
C                 8.4019168268       44.1603721759       79.0809246158
O                 7.5177609559       43.4445293372       79.5508120784
H                 9.1179264343       46.4380902429       77.1395951780
H                 7.9793813415       46.0807953560       79.8098231568
H                 7.1681363903       45.7160952018       78.2741103029
N                10.1447096873       41.2118844016       81.3416407669
C                10.6791411310       40.9883669811       82.6699527930
C                11.8070768485       39.9680754355       82.5173650792
O                11.6222474111       38.8697283703       82.0063953330
C                 9.6207453542       40.5392226751       83.6838540187
C                 8.8386853312       39.3264095741       83.2043104671
C                10.3278532733       40.2588948539       85.0043763898
H                 9.7721937186       40.4137894661       80.8400083422
H                11.0921327526       41.9473838520       83.0045363832
H                 8.9356926510       41.3844649769       83.8225042089
H                 8.1249365018       39.0228671737       83.9666302310
H                 8.2965478261       39.5467378763       82.2875487990
H                 9.5242190699       38.5033229461       83.0248914963
H                 9.6068991567       39.9780033190       85.7683541646
H                11.0442398989       39.4466125668       84.8970736263
H                10.8570879006       41.1438308695       85.3563617134
H                 2.8731052886       41.1311167507       73.2825033118
H                 0.3044307412       43.0416694101       72.1704081819
H                 1.4517732493       38.1686737117       79.8706195151
H                 8.2777128528       37.4772129655       79.2981292788
H                -0.2615105579       35.4046061290       82.7666643813
H                -0.0775701208       32.2768498704       86.7751679169
H                 4.3196348698       33.3921594964       95.1413157749
H                10.7303391707       45.6677050013       83.5971465959
H                 9.1401638735       47.2202638386       78.4304731064
H                 9.3050172392       43.7851879747       78.8720072630
H                 9.4641045347       41.7990487914       81.3865251235
H                12.7278455338       40.1887994848       82.8390262708
