 497 
 
N                48.0947120491       10.2275370159       -2.8465678873
C                47.7008079435       11.1066879678       -1.7652428968
C                48.5292025918       10.7857729223       -0.5185871202
O                49.1331660202       11.6441841081        0.1157041925
C                46.2009935362       10.9393554726       -1.4999667623
C                45.6999387412       11.9853807551       -0.5483523589
C                45.5968879031       13.3085719746       -0.9600102858
C                45.3440063235       11.6497045922        0.7485598951
C                45.1634870852       14.2828278036       -0.0806567578
C                44.8959011958       12.6224620691        1.6242703814
C                44.8127160275       13.9421301855        1.2150759676
H                47.3542814885        9.6910100814       -3.2874723594
H                47.9157176280       12.1477353561       -2.0430811307
H                45.6809665071       11.0271916240       -2.4562584193
H                46.0220044788        9.9382016270       -1.1056415610
H                45.8544035676       13.5664024646       -1.9773530584
H                45.4183358712       10.6200242588        1.0640226603
H                45.0947735819       15.3109341945       -0.4030027575
H                44.6151691372       12.3510632368        2.6301279560
H                44.4739579822       14.7036102033        1.8999647542
N                51.7963368381       12.5135594899       -0.6246868413
C                51.8781629074       13.9462173452       -0.3875333324
C                51.7557631670       14.2356572554        1.1095338075
O                52.4551353350       15.0856179092        1.6515846635
C                50.9087173992       14.7861911403       -1.2328039685
C                49.4383276198       14.5785673624       -0.8681432673
C                51.1696680577       14.5092137212       -2.7082574443
C                48.4877016272       15.3563729694       -1.7740513959
H                51.1061490806       12.1160159572       -1.2479150038
H                52.8943940495       14.2706675637       -0.6559111836
H                51.1754141477       15.8285868091       -1.0240368344
H                49.2004414170       13.5186495982       -0.9197231341
H                49.2788911124       14.8960350073        0.1636986058
H                50.5704141974       15.1762111478       -3.3177182307
H                52.2146837589       14.6808861412       -2.9389388335
H                50.9181522930       13.4836989553       -2.9681354278
H                47.4926538449       15.3484406951       -1.3407324211
H                48.8118627894       16.3896098918       -1.8702704601
H                48.4292095589       14.9124243837       -2.7652724296
N                50.8371689582       13.5165508720        1.7588340446
C                50.6906917591       13.6159547487        3.1968687320
C                52.0495485347       13.3686785407        3.8407358720
O                52.5769050779       14.1743774897        4.6016921002
C                49.6605977689       12.6118023453        3.7302555312
C                48.2456494023       12.9058635780        3.2135287429
C                49.7009813193       12.6030897717        5.2583711486
C                47.6822179397       14.2533098222        3.6479781791
H                50.2712861857       12.8384824060        1.2645119371
H                50.3999315001       14.6394960444        3.4670100256
H                49.9508750334       11.6194788144        3.3687830218
H                48.2268227096       12.8453987178        2.1239972237
H                47.5990981083       12.1115020364        3.5878277214
H                48.8948357419       11.9902940273        5.6495115906
H                50.6395535799       12.1892318776        5.6192272453
H                49.6016562942       13.6116548741        5.6492239259
H                46.6831058998       14.3765923642        3.2415702000
H                47.6275727266       14.3214658677        4.7303384157
H                48.2881760588       15.0755482301        3.2783037202
N                54.7300084282       16.0532371022        3.3690763482
C                54.4843549655       17.1444194802        4.2962494457
C                55.0528871600       16.8150880802        5.6753018990
O                55.7688670049       17.6163203249        6.2779274714
C                52.9737948376       17.4066965438        4.3475646986
C                52.4990545287       18.4007550518        5.4149639006
C                52.9372195875       19.8320499491        5.1164827136
C                50.9742392860       18.3524428253        5.4964031772
H                53.9229961352       15.6255628953        2.9229036711
H                55.0218487715       18.0353824226        3.9462512543
H                52.6694374249       17.7729590165        3.3661873118
H                52.4844596076       16.4459820335        4.5174078225
H                52.9066435715       18.0970392050        6.3823759562
H                52.5519848920       20.5032563181        5.8802363039
H                54.0185101530       19.9196665746        5.1000830179
H                52.5464826578       20.1524462389        4.1531159865
H                50.6092087756       18.9818524177        6.3042710298
H                50.5482365275       18.7123991388        4.5632674062
H                50.6190884280       17.3390911465        5.6658614598
N                54.6937065214       15.6534266370        6.2156050381
C                55.0635346285       15.3798566382        7.5885155516
C                56.5699632032       15.1992322478        7.7701840396
O                57.1392589600       15.6502575365        8.7591781838
C                54.3107645970       14.1869249046        8.2127570295
C                52.8676078939       14.1742581348        7.7242254784
C                54.9787471606       12.8471996100        7.9289101431
H                54.1034126480       15.0056413506        5.7103815270
H                54.8029430187       16.2781346371        8.1611726749
H                54.3262483059       14.3492820596        9.2961079105
H                52.2560967393       13.5501316835        8.3671758744
H                52.4646518038       15.1791406085        7.7087362918
H                52.8029283637       13.7754642786        6.7175059946
H                54.3593604268       12.0381611821        8.3057096948
H                55.1109905950       12.7116777075        6.8589938799
H                55.9525236997       12.7792953473        8.4097209729
N                56.4438795643       19.1593371189        8.7367250262
C                55.8436479348       19.0748467109       10.0564393334
C                56.8710465576       18.6306819963       11.1045515997
O                57.0892482847       19.3161150803       12.0981496379
C                54.6098345912       18.1604791598       10.0770330404
C                53.5759474168       18.5492032183        9.0053880209
C                53.9728474989       18.1641755232       11.4639445037
C                52.8165724925       19.8428967977        9.2790493625
H                56.0162670128       18.6655480534        7.9629611913
H                55.5415777985       20.0866596058       10.3632311713
H                54.9616938015       17.1434024021        9.8714505014
H                54.0717256931       18.6405486319        8.0383674842
H                52.8529961943       17.7342390562        8.9255616237
H                53.0274243855       17.6292014877       11.4320257765
H                54.6194601411       17.6834969905       12.1918675268
H                53.7912792954       19.1827084106       11.7944629364
H                52.1733039280       20.0679847571        8.4323838549
H                52.1862120535       19.7504971402       10.1580861926
H                53.4949453705       20.6794399769        9.4181997205
N                51.6529365057        7.6408470800       14.2997985146
C                50.2587857364        7.4993479885       13.9168627466
C                49.4722532319        8.7482666094       14.3224569468
O                48.6300353798        9.2562313663       13.5881650796
C                49.6766837836        6.2505003343       14.5928704452
C                48.2232920112        6.0500455054       14.2724241298
C                47.8460631143        5.2548386265       13.1981119661
C                47.2370225614        6.6476764602       15.0485031557
C                46.5099994507        5.0710704353       12.8936317582
C                45.9007056297        6.4608589832       14.7490673958
C                45.5327668907        5.6732740589       13.6702347825
H                52.1058154991        6.8497754060       14.7457978270
H                50.1749221413        7.4026213896       12.8254086396
H                50.2631894583        5.3973037991       14.2454940472
H                49.8152900078        6.3659165655       15.6682477811
H                48.6140216677        4.7729678922       12.6079556976
H                47.5307067712        7.2524975743       15.8949027679
H                46.2371029484        4.4633509824       12.0443257084
H                45.1445129021        6.9290418276       15.3607566234
H                44.4901782960        5.5250465797       13.4399887726
N                49.7266578792        9.2078390611       15.5441785417
C                49.0579006112       10.3858098496       16.0549729812
C                49.4102436539       11.6188624507       15.2202682327
O                48.5366525572       12.3719943285       14.8009144230
C                49.3821152958       10.5721019243       17.5469533638
C                48.7398642137        9.4271228846       18.3442890004
C                48.9079358435       11.9390795791       18.0326203719
C                49.0344652528        9.4844052148       19.8394679310
H                50.4515461234        8.7752148680       16.1022268841
H                47.9748429832       10.2466029704       15.9222717968
H                50.4711653516       10.5167514857       17.6487291341
H                47.6593564490        9.4517566841       18.1882301406
H                49.1192504669        8.4819228178       17.9508757571
H                49.1900008228       12.0823485001       19.0702466233
H                49.3686631997       12.7308954646       17.4470524667
H                47.8285212704       12.0250082693       17.9376631824
H                48.6592633542        8.5855679594       20.3211954815
H                50.1070428234        9.5449737516       20.0106107276
H                48.5583341900       10.3434495820       20.3019670717
N                50.7089351363       11.8432057991       14.9888675205
C                51.0909091979       13.0556377413       14.2987141222
C                50.7982493064       13.0201612494       12.7949817296
O                50.6666327660       14.0780507718       12.1809520460
C                52.5446305609       13.4967794712       14.5464170878
C                53.5358882462       12.7065655919       13.6898250777
C                52.8690121166       13.4190237653       16.0354904358
C                54.9752514629       13.1563318933       13.9021578655
H                51.4175405019       11.2253171897       15.3588828190
H                50.4394515929       13.8516391132       14.6935516760
H                52.5982825981       14.5430274991       14.2238215230
H                53.4543265990       11.6402216392       13.9072908617
H                53.2823999688       12.8380197409       12.6343026281
H                53.7962179414       13.9414119996       16.2476114958
H                52.0728915171       13.8745198746       16.6183682284
H                52.9857441658       12.3842548888       16.3497927787
H                55.6250550621       12.6647104322       13.1816243208
H                55.0589514143       14.2341696514       13.7789004133
H                55.3336539819       12.8815813572       14.8916466643
N                50.6684584603       11.8269819873       12.2238333643
C                50.3205770292       11.6922403178       10.8214783288
C                48.8370765650       12.0691443860       10.6798289885
O                48.4375619240       12.7603702393        9.7505925462
C                50.7292240859       10.3046735400       10.2852640284
C                50.9199164522       10.3281481878        8.7640718579
C                49.7388324243        9.2165367629       10.6741904433
C                51.5988739319        9.0712642711        8.2261138544
H                50.9270461871       10.9892994536       12.7275413033
H                50.8730018493       12.4607955121       10.2603709465
H                51.6951255678       10.0791413823       10.7567694910
H                49.9434203931       10.4485859458        8.2919161880
H                51.5306932907       11.1924402695        8.4966234630
H                50.1725870073        8.2419485032       10.4731472909
H                49.5073548618        9.2628888941       11.7306044374
H                48.8155230592        9.3157566156       10.1087053996
H                51.7612210192        9.1707145245        7.1564630598
H                52.5629086045        8.9202431366        8.7097175526
H                50.9923603927        8.1864515544        8.3946001105
N                48.0457826271       11.6755739473       11.6823974637
C                46.6559791615       12.0911942053       11.7486013974
C                46.5943319566       13.6240784657       11.7593274043
O                45.8913134301       14.2614805766       10.9846738596
C                46.0026355722       11.5043727002       12.9922105042
H                48.3568211599       11.0177939848       12.3852227927
H                46.1351540060       11.7500208143       10.8443115296
H                44.9357970031       11.7031632919       12.9755924146
H                46.1648343307       10.4315668966       13.0116082292
H                46.4375339603       11.9271867092       13.8933857205
N                47.3703264016       14.2046772870       12.6811210595
C                47.4692168642       15.6471381890       12.8066264849
C                47.7474371926       16.2969845916       11.4488632684
O                47.0699851058       17.2297177106       11.0309260019
C                48.5898823921       16.0220328718       13.7867882589
C                48.9677742561       17.4701697076       13.6299616532
C                48.0532614637       18.4811682419       13.8970139429
C                50.2319607831       17.8084184630       13.1658815463
C                48.3869813837       19.8028638624       13.6678366718
C                50.5703798211       19.1316595198       12.9496685591
C                49.6421778825       20.1311888366       13.1829015745
H                47.8492170777       13.6321255693       13.3686332942
H                46.5103516133       16.0572581304       13.1524856683
H                48.2580500470       15.8098941304       14.8049404245
H                49.4626208081       15.4099518085       13.5595092316
H                47.0769346710       18.2229362146       14.2801044804
H                50.9502726553       17.0245051335       12.9700598858
H                47.6706405913       20.5821946243       13.8741378109
H                51.5592539394       19.3815089794       12.5975058439
H                49.9028915778       21.1592455529       12.9876686912
N                48.7872312476       15.8250214648       10.7673634844
C                49.1504916291       16.4325980774        9.5022422850
C                47.9504614793       16.5287364854        8.5607312106
O                47.7569690189       17.5239325967        7.8716655660
C                50.2538711858       15.6277205053        8.8453964172
H                49.4114175906       15.1322243426       11.1632344308
H                49.4964061189       17.4604440909        9.6730625182
H                50.5508627679       16.1168087475        7.9219513077
H                51.1016108055       15.5761423294        9.5231546984
H                49.9062246992       14.6211437703        8.6259740887
N                47.1669099739       15.4521540245        8.4921275011
C                45.9768145066       15.4817965021        7.6657339477
C                45.0547631736       16.6217625474        8.1100049519
O                44.5619226029       17.4017110967        7.2993580175
C                45.2639229792       14.1365567058        7.7275664814
C                44.0705021059       14.0537839203        6.7719818186
C                44.5228840413       14.0212533364        5.3140810787
C                43.2482017806       12.8129921119        7.0979768688
H                47.3676476338       14.6161359103        9.0257175375
H                46.2699878607       15.7129398115        6.6331504371
H                45.9872464550       13.3582363670        7.4757312699
H                44.9361958629       13.9643026118        8.7545713423
H                43.4358214076       14.9344546940        6.9141582511
H                43.6644909137       13.9151330909        4.6557241939
H                45.0350241586       14.9402246123        5.0429107055
H                45.1995217813       13.1869514794        5.1454516989
H                42.4246527235       12.7346611108        6.3953555991
H                43.8647337753       11.9194620098        7.0264137417
H                42.8481807830       12.8747640565        8.1074529611
N                44.8187009230       16.6910670535        9.4165724995
C                43.9907298519       17.7348327159        9.9983386437
C                44.3763521042       19.1159267780        9.4457237365
O                43.5522738951       19.8478038023        8.9093821959
C                44.1317894602       17.6747797154       11.5253871988
C                43.3809464197       18.7451975782       12.2632017078
C                41.9920544214       18.7399603509       12.3092561828
C                44.0736317110       19.7156733044       12.9758451989
C                41.3080897212       19.6809625266       13.0575728154
C                43.3908060746       20.6476814821       13.7393221665
C                42.0055354993       20.6324691206       13.7841780404
H                45.2242609948       15.9940636987       10.0316569815
H                42.9459935053       17.5718049221        9.6985285663
H                43.7743124772       16.6924296494       11.8465222167
H                45.1916623358       17.7474255064       11.7663174946
H                41.4478929860       17.9779355076       11.7705263923
H                45.1534733030       19.7134380481       12.9480215386
H                40.2291616103       19.6569995946       13.0916554146
H                43.9434207489       21.3448695897       14.3523459268
H                41.4668337361       21.3402030838       14.3946271218
N                45.6438635556       19.4847822969        9.6642660137
C                46.1117457237       20.7768745923        9.1978974386
C                45.9466408636       20.9016648183        7.6761913435
O                45.4760894666       21.9209586623        7.1778422261
C                47.5357850958       21.1400592346        9.6911982337
C                48.0626368772       22.3528052734        8.9077120544
C                48.5157598928       19.9770006160        9.6123596010
C                49.3740270073       22.9144740968        9.4521021127
H                46.3000442169       18.8156196837       10.0455615014
H                45.4073074986       21.5229221958        9.5908948742
H                47.4507577169       21.4201027080       10.7461597438
H                48.2078420693       22.0659222470        7.8643267799
H                47.3091754184       23.1409825984        8.9193008245
H                49.4863071557       20.2960862839        9.9799998927
H                48.1931287527       19.1501530122       10.2385432885
H                48.6278984532       19.6220391053        8.5915543976
H                49.6063596602       23.8504829951        8.9508597966
H                49.3066782447       23.1032737579       10.5196727084
H                50.2040824291       22.2370698644        9.2714119122
N                46.3166770315       19.8472608776        6.9527964860
C                46.2064621631       19.8754847358        5.5086161648
C                44.8035381541       20.3228544895        5.0832900031
O                44.6251826937       21.2283242375        4.2746314488
C                46.5209056098       18.4868235820        4.9394079755
C                46.4476251609       18.4731910542        3.4398778591
C                47.5434835072       18.8661156520        2.6820238595
C                45.2882029895       18.0769096559        2.7863194493
C                47.4855904824       18.8552513093        1.3011071965
C                45.2256511305       18.0704873795        1.4046096488
C                46.3261252631       18.4557583129        0.6578947766
H                46.6891050611       19.0061046674        7.3826285433
H                46.9046262366       20.6209128918        5.1008809171
H                47.5235274500       18.2081114742        5.2697386344
H                45.8056944761       17.7776527011        5.3571266015
H                48.4494501318       19.1754804205        3.1839354956
H                44.4311437080       17.7683290550        3.3679003237
H                48.3454418381       19.1560070349        0.7200219538
H                44.3166731372       17.7670839989        0.9060020662
H                46.2830513086       18.4468399058       -0.4205783905
N                43.8126811748       19.6181042589        5.6315064169
C                42.4353901840       19.8025237319        5.2268527422
C                42.0286756791       21.2616432866        5.3907364502
O                41.4893852009       21.8861981684        4.4817977885
C                41.5021345105       18.8741012320        6.0222034109
C                40.0394363580       19.2235243989        5.7531805492
C                41.7625512900       17.4189628505        5.6402942069
H                44.0195991175       18.8969128886        6.3137193286
H                42.3396022816       19.5858284016        4.1518727327
H                41.7229310158       19.0125813975        7.0858530448
H                39.3924727518       18.5068563896        6.2514055383
H                39.7971344013       20.2205088265        6.1102053457
H                39.8392474219       19.1932183229        4.6840957628
H                41.0869505511       16.7683646606        6.1888296945
H                41.5911029406       17.2736785195        4.5762926186
H                42.7823689551       17.1299376918        5.8749853975
N                42.2331347244       21.7999029749        6.5967386176
C                41.6851316821       23.1150359773        6.8756895427
C                42.3388555716       24.1861083365        5.9932141238
O                41.6667571300       25.0426723141        5.4322719259
C                41.7292346048       23.4331151060        8.3706173649
C                43.1232541016       23.5918611897        8.9778783157
C                43.0085719206       23.6474068971       10.5049638148
C                44.3510676316       23.9562555349       11.1602687120
N                44.2228025370       23.9382950684       12.6444012019
H                42.6473554179       21.2637397707        7.3495647712
H                40.6308018466       23.1115635138        6.5594707546
H                41.1582886673       24.3503492326        8.5217394593
H                41.2052760024       22.6201897172        8.8778605350
H                43.7531012672       22.7526309949        8.6838325310
H                43.5825952362       24.5059988466        8.6015775413
H                42.2807089680       24.4171231216       10.7652815293
H                42.6338348365       22.6842676977       10.8576744648
H                45.0904446401       23.2109226038       10.8660218110
H                44.7037049156       24.9394861471       10.8469721191
H                45.1297288058       24.1394712363       13.0916137157
H                43.5404608037       24.6494303209       12.9486804916
H                43.8873247489       23.0123180870       12.9635803747
N                43.6731130462       24.1330281410        5.9067379169
C                44.3828386439       25.0854490653        5.0736794753
C                43.8456141284       25.0389997272        3.6381715893
O                43.5540875137       26.0567551917        3.0195063652
C                45.8997081350       24.8374734233        5.1478535495
C                46.4051762801       25.2189897514        6.5480495537
C                46.6210387300       25.6218120066        4.0553303439
C                47.9219454705       25.1491745569        6.6892380612
H                44.1924788372       23.3537234935        6.2936689647
H                44.1559772368       26.0995225288        5.4315222016
H                46.0684684368       23.7674408608        4.9846450328
H                46.0771533466       26.2348942833        6.7773259321
H                45.9516577242       24.5396682216        7.2704050078
H                47.6775213786       25.3748661507        4.0455425087
H                46.2121922577       25.3849105654        3.0763030470
H                46.5095896984       26.6911739223        4.2193059552
H                48.2043697137       25.3366531015        7.7213015486
H                48.2899016298       24.1688572323        6.3992476682
H                48.4089745553       25.8988303656        6.0730648728
N                43.7468089114       23.8178026393        3.1024701312
C                43.3477422191       23.6515145395        1.7201905623
C                41.9108272035       24.1279476364        1.4766905384
O                41.6316212626       24.8702901924        0.5431561246
C                43.4649086172       22.1915445690        1.3081063877
H                43.9539484613       22.9798132800        3.6334823504
H                43.9865197218       24.2883636254        1.0919039124
H                43.1656983428       22.0852307554        0.2700301942
H                44.4892922555       21.8508601367        1.4292871690
H                42.8143010679       21.5841969566        1.9318302460
N                41.0060926187       23.6370495052        2.3274110252
C                39.5875573433       23.8110037132        2.1041488769
C                39.2267486224       25.2607782306        1.7887846028
O                38.3545616054       25.5294911156        0.9745948835
C                38.7760277112       23.3280632164        3.3057350305
C                38.3965803865       21.8540212642        3.1795982863
O                38.6440572288       21.1750656026        2.1983900918
N                37.7548678924       21.3636429203        4.2519051847
H                41.2849625153       23.0166820429        3.0807019722
H                39.2791925671       23.2242463907        1.2236089821
H                39.3492280301       23.4838234434        4.2202351910
H                37.8533703016       23.9090741158        3.3683109151
H                37.3986684080       20.4202728887        4.2140014775
H                37.4849865438       21.9501320692        5.0208862679
N                36.6530295943       12.9226566205        1.4465512977
C                37.3029912317       13.0894458924        2.7352035517
C                37.5590597284       11.7351307346        3.3945752423
O                38.6812058378       11.3952294276        3.7439292980
C                36.4220262203       13.9661902867        3.6311664249
C                36.9937797667       14.2278055723        5.0310030994
C                38.2669412307       15.0696341546        4.9698673436
C                35.9256847963       14.9331834778        5.8673788852
H                35.9790396890       13.6502059172        1.2037670394
H                38.2844399693       13.5569158113        2.5849823281
H                36.2648349381       14.9230716963        3.1281698905
H                35.4509484689       13.4754787427        3.7397080869
H                37.2269396720       13.2673808457        5.5063322438
H                38.5717625822       15.3523702667        5.9742458123
H                39.0802485986       14.5059635240        4.5214961476
H                38.0935366047       15.9728854817        4.3905686354
H                36.2924483661       15.1297248849        6.8712515635
H                35.6482362272       15.8766464747        5.4038018848
H                35.0363035889       14.3115545023        5.9505604955
N                40.9860255828        9.5896261642        4.2113020302
C                41.3407669226        9.1923079041        5.5591698524
C                41.6499924779        7.6950355943        5.5857746301
O                42.6283614124        7.2466799306        6.1822790459
C                40.2195209137        9.5455922343        6.5523831890
C                40.1051836928       11.0684687485        6.6873486257
C                40.4932692796        8.9064930875        7.9109003259
C                38.9377293728       11.5223368399        7.5561225507
H                40.1099018114       10.0783787443        4.0662034336
H                42.2684731723        9.7063635336        5.8541351307
H                39.2850570155        9.1394676058        6.1497685738
H                41.0299409228       11.4417403797        7.1235336594
H                39.9874566426       11.5083787695        5.6962485539
H                39.6855000359        9.1408443833        8.5964651519
H                40.5532443429        7.8242712494        7.8280686642
H                41.4297621428        9.2790523358        8.3194898474
H                38.8361799157       12.6027215636        7.4951956954
H                38.0068389015       11.0647892834        7.2243437941
H                39.0920346797       11.2566021557        8.5975331983
N                45.1284797112        6.8482306426        4.0913897102
C                46.2297622283        7.4740069849        4.8052203417
C                46.4329224462        6.8285683934        6.1734423216
O                47.5009837094        6.3686518265        6.5544282626
C                45.9544481201        8.9736629554        4.9867715742
C                46.9920597836        9.6014197144        5.9136133718
C                45.9513810009        9.6774390850        3.6355158002
H                44.2994529326        7.4016509673        3.9130507713
H                47.1604775039        7.3254268716        4.2398355083
H                44.9601097556        9.0774741098        5.4376504974
H                46.8033360556       10.6674034769        6.0152334083
H                46.9588963823        9.1618156068        6.9075485900
H                47.9915570145        9.4572032706        5.5095298995
H                45.8341921009       10.7473555358        3.7822374614
H                46.8912993996        9.5022640546        3.1171232415
H                45.1286830233        9.3257472858        3.0203477343
N                45.3387338833        6.8610024808        6.9419843358
C                45.3582103704        6.3982852559        8.3062380287
C                45.3615879423        4.8763828412        8.3814991302
O                45.8682316734        4.2907489656        9.3328262455
C                44.1910386720        6.9935686410        9.0905225695
C                44.3390520913        8.5008598917        9.2808798622
S                45.9893145842        9.0243624901        9.8542941507
C                45.9967440545        8.2423147609       11.4931609961
H                44.4415763145        7.1318020697        6.5568237156
H                46.3023502173        6.7357599499        8.7597087970
H                43.2675835251        6.8058475119        8.5394878431
H                44.1315664111        6.4930977047       10.0573340035
H                44.1970811463        9.0218641785        8.3354084705
H                43.6079486788        8.8638356008       10.0027625407
H                46.9039530053        8.5597043512       11.9956318570
H                45.1185976342        8.5668919061       12.0424270666
H                46.0046346840        7.1632334487       11.3868783904
N                57.8599083403       19.0782001067       -0.3290198096
C                56.4190494860       18.9505504984       -0.1755458204
C                55.7251033955       19.2013494064       -1.5206725274
O                55.0184577809       18.3538972060       -2.0598740798
C                55.9097740995       19.9086468130        0.9026802448
C                54.4054309535       19.9842768509        0.9303623639
C                53.6272623531       18.8331416615        0.9497955452
C                53.7742409463       21.2213469817        0.9499264328
C                52.2467471256       18.9179268396        0.9802047811
C                52.3939885016       21.3080996074        0.9932723333
C                51.6265050766       20.1557877656        1.0086886727
H                58.3346803694       19.7557943825        0.2627149449
H                56.1960870588       17.9162901639        0.1082516321
H                56.2825858149       19.5578272323        1.8678488300
H                56.3244152813       20.9034087841        0.7351057020
H                54.0947898068       17.8613017079        0.9371898714
H                54.3700577903       22.1219583532        0.9360278627
H                51.6580117869       18.0132433476        0.9769722971
H                51.9177330329       22.2768984420        1.0044244189
H                50.5504735157       20.2265891757        1.0413878817
H                48.4723179473       10.7114297502       -3.5047939938
H                48.5941070250        9.8434163765       -0.1903318002
H                52.5740984370       12.2214212697       -0.9707246364
H                52.5474016707       12.5229637773        3.6486192565
H                55.2485311641       16.3440956827        2.6934022710
H                57.1017360723       14.7094602733        7.0792853287
H                56.4613265661       20.0184365597        8.4690615192
H                57.3717561486       17.7737697388       10.9821126827
H                52.1491864936        7.8133358014       13.5690567062
H                39.7060640533       26.0071196015        2.2505543244
H                37.2738919767       12.9202874759        0.7949960128
H                36.7998807578       11.1029851428        3.5496211759
H                41.6152929264       10.1449980774        3.8863641157
H                41.0497639190        7.0519923056        5.1101476692
H                45.4096604719        6.5822065559        3.2788821317
H                44.9462552701        4.3385680135        7.6478411836
H                58.2522755296       18.2883171211       -0.1497634072
H                55.8412496243       20.0780841451       -1.9874125531
