 497 
 
N                20.7049423035       39.3608465994       75.9801890570
C                19.6437280535       39.8966873395       75.1533868950
C                19.3564385328       41.3664532582       75.4567103189
O                18.7308997249       42.0859516109       74.7008965857
C                18.4234237351       39.0099803532       75.3507735780
C                17.1943298928       39.3989725873       74.5896302093
C                16.2864337750       40.2716226461       75.1777384023
C                16.8644845442       38.7370250146       73.4112237748
C                15.0107939241       40.4046154052       74.6687184772
C                15.5812600870       38.8606681588       72.9096249201
C                14.6492977687       39.6615186549       73.5571304914
H                20.4422239708       38.7260451899       76.7438226413
H                19.9636982603       39.8470753926       74.1085687424
H                18.7092585511       37.9912752858       75.0823484781
H                18.1831289385       39.0003429162       76.4189184587
H                16.5468034753       40.7742861169       76.0972256374
H                17.5757673827       38.0681845225       72.9548928400
H                14.2923165203       41.0265687503       75.1742310568
H                15.2756709655       38.3196428311       72.0274851898
H                13.6378141452       39.7151965843       73.1817028214
N                 9.2079285533       44.8091444312       69.9897531529
C                 8.8545058868       43.3964510666       70.0656933281
C                 7.8311211017       43.1495497112       71.1716790935
O                 6.8852747916       42.3868663560       71.0294530022
C                10.1245148761       42.5657196187       70.2320893992
C                 9.9214420309       41.1201274747       69.8045083448
C                11.2734058083       40.3931508198       69.4890870616
O                11.1531162759       39.2874070845       68.9054866039
O                12.3325704085       40.9297815288       69.8396687214
H                10.1808876494       45.0168918815       69.8107175501
H                 8.3575837255       43.1199723674       69.1222097074
H                10.8983929039       43.0046996662       69.5942233906
H                10.4728799825       42.6266286762       71.2634940310
H                 9.3993882649       40.5559757544       70.5793026289
H                 9.3135140719       41.0694998193       68.8976874688
N                 2.2540578233       37.7916541278       79.7797807135
C                 3.4452682902       38.4998975064       80.1817556790
C                 4.6411501537       37.9320581749       79.4597749805
O                 4.8829649237       36.7285904323       79.4741551135
C                 3.7040561981       38.3236052806       81.6804811574
C                 2.6319095799       39.0746805997       82.4780968855
C                 5.1173502244       38.7986457274       82.0099613969
C                 2.3397753211       38.4172550314       83.8161500281
H                 2.1245656978       36.8504160351       80.1441925896
H                 3.2951908760       39.5544558978       79.9466718683
H                 3.6178714967       37.2577870412       81.9106632488
H                 2.9523450801       40.1062416555       82.6330237800
H                 1.7106316644       39.0812636541       81.8912137875
H                 5.2809745325       38.7375695601       83.0841169508
H                 5.8759238242       38.1852733145       81.5315470684
H                 5.2579334316       39.8325080413       81.7073857044
H                 1.5157436925       38.9200585663       84.3143875312
H                 2.0785773187       37.3697478241       83.6794628424
H                 3.2014514709       38.4678896193       84.4740739465
N                 5.4405699715       38.7752001702       78.8262695084
C                 6.6189379747       38.2560128495       78.1384808578
C                 7.8200331790       38.2700950666       79.1089589649
O                 8.2575595373       39.3024597528       79.6124861879
C                 6.7921215382       39.2329963378       76.9776398830
C                 6.3360507647       40.5680761350       77.5572299743
C                 5.2384478232       40.1916807531       78.5765610585
H                 6.4369583561       37.2278291447       77.8227531443
H                 7.8195291885       39.2634627169       76.6317087413
H                 6.1384299153       38.9335403155       76.1578473941
H                 7.1550296569       41.0562689606       78.0815935115
H                 5.9628391299       41.2422603492       76.7910839233
H                 5.3489843697       40.7727571156       79.4940018112
H                 4.2424023268       40.3496133206       78.1537573405
N                 8.3276364694       37.0619231881       79.3639774742
C                 9.5506216402       36.9311135817       80.1013968502
C                10.7198637238       36.6623127414       79.1963921695
O                10.6144090426       35.8771784800       78.2643362465
C                 9.4747664568       35.6964833708       80.9865015093
C                10.8145173480       35.4364956953       81.6800347245
C                 8.3409063715       35.8855234891       81.9804008029
H                 7.9963267436       36.2459656164       78.8543870279
H                 9.7116369154       37.8373369612       80.6893151765
H                 9.2423458104       34.8447193304       80.3376964236
H                10.6930770489       34.6667657427       82.4379290798
H                11.5731575061       35.1086117822       80.9762304917
H                11.1741864797       36.3455692473       82.1591071551
H                 8.1437894641       34.9540559678       82.5036012141
H                 8.6114737616       36.6398200764       82.7159728307
H                 7.4442616907       36.2202155837       81.4739740621
N                11.8598710297       37.2452613430       79.5665285566
C                13.1410220901       36.8089538040       79.0548434989
C                13.8905570852       36.0268098733       80.1548014727
O                14.1292156975       36.5680032539       81.2300108358
C                13.9855313077       38.0226543854       78.6757689519
C                15.3196035843       37.5645932573       78.1236827058
C                13.2620456658       38.8977290338       77.6698859980
H                11.8790962255       37.8256480202       80.3963209955
H                12.9619814697       36.1655610712       78.1914306871
H                14.1571834383       38.6119170816       79.5862769805
H                15.8986706158       38.4116757104       77.7616208421
H                15.9099985202       37.0740080249       78.8958408299
H                15.1690020472       36.8719620767       77.3066627715
H                13.8016960021       39.8318675395       77.5359930810
H                13.2012177841       38.4005910697       76.7048156510
H                12.2547848050       39.1288680318       78.0047880204
N                14.2134472804       34.7577687207       79.8844008648
C                15.0367349644       33.9023860838       80.7186595704
C                16.4164542995       33.7740303040       80.0385008747
O                16.4948249774       33.3172126423       78.9037801908
C                14.4225352941       32.4961227860       80.8073273095
C                15.4106462031       31.5825981009       81.5164681254
C                13.0460753409       32.4839344871       81.4676885081
H                14.0530844866       34.4232742195       78.9379813527
H                15.1449423791       34.3730463775       81.6984313045
H                14.3112670752       32.1465832797       79.7742949067
H                14.9948493648       30.5849016456       81.6206714041
H                16.3417540646       31.5173268458       80.9627345542
H                15.6338570726       31.9661671469       82.5111832577
H                12.6808246411       31.4627215506       81.5129611563
H                13.0986745280       32.8850743135       82.4765479416
H                12.3467740623       33.0784963726       80.8882507760
N                17.4893072118       34.1438969766       80.7634978099
C                18.8540131189       33.9651563008       80.2892833533
C                19.7012944609       33.2946524386       81.3780716779
O                19.6772091617       33.6785426224       82.5410559180
C                19.5821410222       35.2802056080       79.9013132528
C                18.7224745925       36.5436785640       79.9141507849
C                19.4508359161       37.7458296107       79.1953217232
O                19.9733550531       37.5184798863       78.0783228609
O                19.4300185933       38.8465167758       79.7763070106
H                17.3552125303       34.5855587975       81.6646163486
H                18.7637162300       33.3178469578       79.4116252806
H                20.4216792899       35.4420451370       80.5835744166
H                19.9874794979       35.1804253313       78.8929002784
H                17.8022856031       36.3730506212       79.3487760781
H                18.4510832689       36.8617004928       80.9214998552
N                19.3042764539       27.5581275426       77.3020330402
C                17.9616604295       27.2476981258       76.8954359026
C                17.7426763189       27.4779117634       75.4165014120
O                18.2504944037       28.3805347786       74.7605397301
C                16.9299841152       28.0710858553       77.6666743105
C                16.5749323625       27.4739126348       79.0300271460
C                15.7652045918       28.5146098157       79.7911732818
C                15.7705559141       26.1874357930       78.8876698429
H                19.5862865190       28.5239874240       77.3417378479
H                17.8341338225       26.1806816631       77.1038648509
H                17.3202546638       29.0835541954       77.7863346452
H                16.0213587283       28.1597074223       77.0704859857
H                17.4980446869       27.2487492880       79.5759480005
H                15.4742928451       28.1341500718       80.7660165973
H                16.3598703469       29.4105534996       79.9415416579
H                14.8727960578       28.7846073672       79.2351216086
H                15.5195699733       25.7824829108       79.8646763212
H                14.8470074287       26.3808420836       78.3469886489
H                16.3174001897       25.4158458183       78.3494020286
N                15.2694431922       28.5328316886       73.9305613377
C                14.5569620368       29.7518718475       73.6720151904
C                14.7901738649       30.7059024697       74.8321645564
O                15.3516592060       30.3109721243       75.8306129566
C                13.0597262536       29.4357109335       73.5376600102
C                12.7144913626       28.3754395553       72.4904226754
C                13.0202931871       28.8170609053       71.0541114929
C                12.2094193762       28.0528502248       70.0015594527
N                12.5768994908       26.6099961078       69.9921976584
H                15.0701198427       28.0375427022       74.7867272346
H                14.9899468740       30.1672940244       72.7556862742
H                12.7237700577       29.0859590461       74.5154016529
H                12.5340350463       30.3622753663       73.3134869524
H                13.2685006634       27.4745878970       72.7415231729
H                11.6462353268       28.1778443423       72.5940859296
H                12.7654034265       29.8712263357       70.9503156943
H                14.0884584526       28.7269795156       70.8533537016
H                11.1451993865       28.1387801375       70.2231841361
H                12.4083862520       28.4697211049       69.0152035295
H                12.0455532363       26.0983509656       69.2717987898
H                13.5827741665       26.5073963948       69.7880878972
H                12.3988980313       26.1809921399       70.9092013023
N                14.2437252623       31.9464153875       74.6884371629
C                14.6332783888       33.0391529209       75.5486493095
C                13.4454606029       33.9116433948       75.9206364223
O                13.3583109957       34.4529769890       77.0163340210
C                15.7433618950       33.8856555415       74.8693956872
O                16.8681402052       33.0717728094       74.6620861549
C                16.0715149678       35.1592930921       75.6343800252
H                14.1371759349       32.2187072513       73.7182840158
H                15.0553625226       32.6244029951       76.4726589915
H                15.4227258303       34.1669662630       73.8579977653
H                17.2205265057       32.7805804447       75.5109755997
H                16.9512535709       35.6431256684       75.2156445471
H                15.2452916513       35.8612402768       75.5641707189
H                16.2786863841       34.9467801669       76.6828214734
N                12.5522610165       34.0761728308       74.9372773199
C                11.3517063374       34.8722198979       75.1107193023
C                10.2122200836       33.8425106825       75.2769296828
O                10.0526892788       32.9556948547       74.4513719822
C                11.1926967912       35.9407964897       73.9799147728
C                11.9038707253       35.5878151265       72.6781701037
C                11.4407015375       36.4570595323       71.4975138658
C                11.7838062168       35.7786801109       70.1471754994
N                11.0840595971       36.3896341348       68.9757712905
H                12.5645696381       33.4617270690       74.1371654255
H                11.4568109666       35.4003670101       76.0614011202
H                10.1254773760       36.0808405578       73.8085298031
H                11.5821352804       36.8867733393       74.3574795142
H                12.9803040181       35.6861045988       72.8144289030
H                11.6729709561       34.5471950332       72.4426286437
H                10.3636870670       36.5951930120       71.5752080195
H                11.8975484137       37.4441676751       71.5467624887
H                12.8576394195       35.8726799205       69.9809555674
H                11.5354872517       34.7190068632       70.1993460478
H                11.4369606502       36.0185545303       68.0841917094
H                10.0612254792       36.3029646668       69.0328604276
H                11.2591477664       37.4301823459       68.9584319827
N                 9.5007695754       33.9369535415       76.3957880914
C                 8.3493587166       33.1239158211       76.7355559347
C                 7.1414624241       34.0205887984       77.0919050684
O                 7.2642461361       34.9807168136       77.8559397305
C                 8.5665998954       32.3281073776       78.0454711453
C                 9.7191604884       31.3860378827       77.9849246489
C                11.0199629687       31.8703374025       77.9377720200
C                 9.4853552884       30.0212327823       77.9921959776
C                12.0825644594       30.9873537383       77.9074460648
C                10.5521196227       29.1464825722       77.9720348380
C                11.8509648436       29.6234659071       77.9393821294
H                 9.7090610290       34.6818055388       77.0539513885
H                 8.1318724951       32.4688737180       75.8912236486
H                 8.7309970114       33.0585387740       78.8428786075
H                 7.6405741797       31.7930893717       78.2689804072
H                11.2157720280       32.9317064825       77.9698770847
H                 8.4729278722       29.6501217236       78.0302111850
H                13.0940287972       31.3649025302       77.8730498489
H                10.3719743525       28.0834498234       77.9988207325
H                12.6891515518       28.9443036172       77.9456845545
N                 5.9698657938       33.6424914229       76.5776159745
C                 4.7222933531       34.3000615398       76.9333699574
C                 4.0403535587       33.5550275155       78.0785250486
O                 3.5028174977       32.4821001486       77.8186356158
C                 3.7393008833       34.2391919668       75.7690293588
C                 4.0755495162       35.2761079167       74.7160831276
C                 3.6970543588       34.7547678478       73.3265368685
C                 3.3845211838       36.5742107656       75.1012751650
H                 5.9096647437       32.8133302638       75.9966805165
H                 4.9576666892       35.3215907378       77.2416951733
H                 3.7756089458       33.2304811108       75.3585168185
H                 2.7290415104       34.4140997291       76.1378540089
H                 5.1509011332       35.4455311032       74.7209081816
H                 3.9405798722       35.4996870285       72.5789145620
H                 4.2543949377       33.8486286720       73.1076763674
H                 2.6342384762       34.5328445626       73.2742944063
H                 3.7547435251       37.4122464130       74.5202168231
H                 2.3119591555       36.4988122710       74.9389524051
H                 3.5594614342       36.7993889735       76.1514876404
N                 3.9940574451       34.1437921023       79.2747052945
C                 3.4334413499       33.4823519346       80.4206992111
C                 2.0278154504       34.0050469061       80.8116599112
O                 1.7662511284       35.2054519726       80.8905465345
C                 4.3905469449       33.6194182649       81.6541076445
C                 5.2706919045       32.3820997217       81.8072886590
C                 5.3437867967       34.8036136911       81.5763712873
H                 4.3484113155       35.0874637309       79.3947766129
H                 3.3531526386       32.4304034233       80.1464978127
H                 3.7568168671       33.7342869740       82.5425514580
H                 5.9721046823       32.5267536674       82.6254926390
H                 4.6861635940       31.4961719577       82.0257486902
H                 5.8482093465       32.2220977552       80.9008351718
H                 5.8696307453       34.8728629063       82.5240125666
H                 6.0608872455       34.6499628700       80.7758446269
H                 4.8283478117       35.7395486939       81.4132021632
N                 6.4939181737       28.0516374498       86.8855992341
C                 7.3895231563       28.5635543138       85.8833948316
C                 8.7120161748       27.8136859109       85.8749573774
O                 9.2184499935       27.3990208396       84.8300148962
C                 7.7213551124       30.0420815508       86.0224093472
C                 8.3371082243       30.5636245983       84.7353677174
C                 7.8504915905       30.2174677140       83.4590940117
C                 9.4067850007       31.4475025200       84.7832472015
C                 8.4179590225       30.7482496842       82.3199566300
C                 9.9400168717       32.0133541706       83.6160690190
C                 9.4612977164       31.6624018775       82.3773229186
H                 5.9431504892       28.7079780486       87.4329675057
H                 6.9294627717       28.3802783706       84.9037847938
H                 6.7843814263       30.5646749269       86.2199892897
H                 8.4022721418       30.2132290120       86.8553837629
H                 7.0052137420       29.5574849969       83.3499275268
H                 9.8187459591       31.7413991124       85.7357984917
H                 8.0336742237       30.4565176521       81.3532022925
H                10.7565775264       32.7109116160       83.7188583380
H                 9.8682708150       32.0790108539       81.4706863613
N                10.6735570221       25.6905906620       83.0506623089
C                11.9962948832       25.9037120492       82.4833084651
C                12.8246750153       24.6277694164       82.6542048983
O                13.4820070421       24.1479184554       81.7358698092
C                12.7053633128       27.1064762800       83.1318194688
C                12.4105035348       28.4130504744       82.3680224684
C                14.2121433609       26.8875285633       83.2157051317
C                11.4413217400       29.2446182391       83.2024570791
H                10.3592946977       26.2157943073       83.8566660482
H                11.8932585079       26.0519478066       81.4017013961
H                12.3172179355       27.1868471398       84.1500759933
H                13.3323006152       28.9710557163       82.2099600611
H                11.9725717637       28.2059303114       81.3935383515
H                14.7002031316       27.7657917744       83.6303924913
H                14.4591629735       26.0400550968       83.8412732979
H                14.6102890703       26.7014340904       82.2215343031
H                11.1665228858       30.1439113668       82.6666864509
H                10.5354388320       28.6869789885       83.4163557505
H                11.9006638216       29.5356909279       84.1421875713
N                12.6099764602       21.9072190472       80.1516741926
C                13.2208860427       22.0876287736       78.8733589215
C                14.7284578651       21.8066492558       78.9242380056
O                15.4384024432       21.9408117037       77.9378941559
C                12.9491113901       23.4818233053       78.3172114056
C                11.4765036332       23.7630307279       78.0217636679
C                11.3868094210       25.2107899636       77.5083683961
N                10.4916875436       25.3923078063       76.3814189726
C                10.8165933180       25.4505882501       75.0857399701
N                12.0575282979       25.5700864159       74.6215952833
N                 9.8170383620       25.5275845589       74.1981635394
H                12.5065370839       22.6917049904       80.7818228417
H                12.8139035957       21.3211208384       78.1978447566
H                13.3149663942       24.1969138320       79.0564312024
H                13.5487725046       23.5895659222       77.4097250631
H                11.1245131341       23.0642383565       77.2619036182
H                10.8848924277       23.6151530775       78.9241829945
H                11.0342991828       25.8551776290       78.3154794372
H                12.3809291411       25.5462952102       77.2136187691
H                 9.5147833630       25.2480388923       76.5989514159
H                12.9026320865       25.3307990867       75.1456115689
H                12.1815815351       25.4448599722       73.6291696796
H                 8.8570774132       25.4307557824       74.4876256885
H                10.0036793126       25.4889132480       73.2094946227
N                 2.9015167135       35.5534510175       88.0425380045
C                 3.6357856439       36.2853144082       87.0386847811
C                 3.1348932393       37.7151952709       86.9865047207
O                 3.9092572832       38.6458089485       86.8092992671
C                 3.5428157463       35.5825485677       85.7007147338
C                 4.3581605270       34.3067595638       85.7362797136
S                 6.1008337299       34.7307788886       86.0319400056
C                 6.7255312470       33.0505149501       86.0889780382
H                 2.4679546153       34.6770081669       87.7854250324
H                 4.6980314572       36.3439826457       87.3150314551
H                 2.5018616883       35.3553228635       85.4603981440
H                 3.9461045385       36.2387042492       84.9286394173
H                 4.0347539170       33.6511888595       86.5454960321
H                 4.2977302346       33.7806164498       84.7828362638
H                 7.7537421972       33.0921044027       86.4317166064
H                 6.1107993501       32.4925258909       86.7924800807
H                 6.6821960543       32.6126517254       85.0956544422
N                 9.5876800365       43.6804231886       78.7347968507
C                 9.9932421949       42.3861769901       79.2558044085
C                10.3350503566       42.4553195589       80.7485378162
O                10.8360197873       43.4529598033       81.2457154314
C                11.2825300127       41.9659793110       78.5523313957
C                11.1349212820       41.6343852316       77.0899936152
C                10.1582308971       40.7595521738       76.6429256356
C                12.0553355158       42.1357254187       76.1796038831
C                10.1227435960       40.3657512613       75.3166212582
C                12.0178315057       41.7418338699       74.8581090088
C                11.0648978458       40.8371698687       74.4247355980
H                10.3394472235       44.3308078522       78.5210753668
H                 9.1748200481       41.6764051781       79.1020901458
H                11.9867220046       42.7912099318       78.6625086602
H                11.7004582572       41.0986955870       79.0735251844
H                 9.4507184187       40.3588528192       77.3518683996
H                12.7933705437       42.8486579606       76.5193494916
H                 9.3708453345       39.6763803556       74.9731010885
H                12.7152667351       42.1540362977       74.1455895101
H                11.0448427578       40.5330061224       73.3883963780
N                10.1260831460       41.3268944522       81.4504754774
C                10.7654393561       41.0715281411       82.7437689924
C                11.8837792737       40.0392109785       82.5379533245
O                11.6594691666       38.9391877916       82.0441303889
C                 9.7760971066       40.5742408415       83.8018761929
C                 8.7527983092       39.6129155480       83.2324406503
C                10.5731891618       39.8951597207       84.8953605434
H                 9.7242961976       40.5249830388       80.9786840643
H                11.2060826462       42.0201387447       83.0685647221
H                 9.2677845701       41.4508531028       84.2190389716
H                 8.1070270197       39.2519440365       84.0286458328
H                 8.1405862051       40.0787619962       82.4652566193
H                 9.2635110038       38.7607179740       82.7914414962
H                 9.9170642406       39.6135808636       85.7169532122
H                11.0603575195       38.9924985698       84.5348597503
H                11.3344392789       40.5621831359       85.2994819072
N                13.1223128263       40.4352275287       82.8495443545
C                14.2592029226       39.5640814785       82.6511226320
C                14.5092812435       38.7137697992       83.9361205817
O                14.4007042186       39.1821870745       85.0749890434
C                15.4992221061       40.3907462645       82.3048866361
C                15.4778382997       41.1268363258       80.9835813948
C                14.5362937604       42.1078180885       80.6546021958
C                16.4925787754       40.8760717378       80.0644278968
C                14.6193947634       42.8477262140       79.4866515300
C                16.5700966856       41.5851415410       78.8799462436
C                15.6552254147       42.5955400534       78.5898170259
O                15.7689638145       43.3594826062       77.4731873076
H                13.2711045442       41.2774782349       83.3834068676
H                14.0039367510       38.8709315794       81.8438427636
H                15.6393977132       41.1138267398       83.1159592367
H                16.3592901918       39.7184816828       82.3007745383
H                13.7168359093       42.3299595921       81.3232780161
H                17.2360489493       40.1185025008       80.2674961600
H                13.9099863452       43.6340687048       79.2773514660
H                17.3680439600       41.3620455845       78.1854024919
H                16.4593127083       43.0007450434       76.8926879589
N                14.8457799121       37.4429700196       83.7294248384
C                15.1598357094       36.5182751719       84.7867015418
C                16.4386234202       35.8193240691       84.4102593161
O                16.6153792697       35.4326685745       83.2582958695
C                14.1181477979       35.4127099704       84.9101517739
C                12.7478806403       35.9712695041       85.1851320823
S                11.7592613544       34.5453876831       85.6144819203
C                10.1557273915       35.3624438288       85.8187461569
H                14.8419342894       37.0541608804       82.7888149703
H                15.2738576176       37.0682466152       85.7236432795
H                14.1028220093       34.8381213348       83.9807358663
H                14.4258722249       34.7494226402       85.7229164836
H                12.7682471131       36.6724987163       86.0234285475
H                12.3345101265       36.4668554662       84.3053851894
H                 9.4783385520       34.6407313743       86.2586496994
H                10.2718118293       36.2064274631       86.4915110195
H                 9.7913514348       35.6871583023       84.8491915675
N                 9.2727411954       32.8966741206       70.0380698923
C                 8.5796381250       33.4874071484       71.2330353586
C                 7.5979649812       32.4641241177       71.9068443978
O                 6.4075761938       32.4999445648       71.6713300121
C                 7.7263341132       34.6966703912       70.8061664320
C                 7.6852307316       35.7217807935       71.9230052815
C                 7.2683225634       35.3720803497       73.2009948422
C                 8.1586929890       37.0152784278       71.6931136528
C                 7.3693457219       36.3031452540       74.2153702982
C                 8.2844680650       37.9407933388       72.7144811156
C                 7.8874057419       37.5681836379       73.9789255461
H                 9.8447738778       33.6031159568       69.5512602957
H                 9.8675252788       32.0969588866       70.3111282073
H                 8.5560090145       32.5605541648       69.3679522168
H                 9.3295949098       33.7888816263       71.9708519324
H                 8.1098580656       35.1752697530       69.9073145276
H                 6.7093981935       34.3507462210       70.6005135199
H                 6.8797629920       34.3893253059       73.4064260844
H                 8.4111659466       37.3291593097       70.6897800113
H                 7.0936860763       36.0547924724       75.2296961713
H                 8.6670550529       38.9314370794       72.5160771848
H                 7.9703968824       38.2547346851       74.8031997392
N                 8.2212281284       31.5640107118       72.6776192394
C                 7.5563644025       30.4155603749       73.2973430670
C                 6.1848920168       30.6845467617       73.9370590797
O                 6.0635019971       31.3204287084       74.9842695265
C                 8.3765352185       29.7868456125       74.4464193242
C                 7.9800708917       28.3192242234       74.5073317952
C                 9.8817252382       29.8913554962       74.2866531314
H                 9.0908964850       31.8340871987       73.1325344610
H                 7.4191522321       29.6800985363       72.4970713930
H                 8.0956719942       30.2758400197       75.3817438618
H                 8.4678894094       27.8526142002       75.3585051941
H                 6.9059209062       28.1939285822       74.6330664180
H                 8.2834830825       27.8137265742       73.5957974548
H                10.3474829065       29.2366242557       75.0171184977
H                10.1691412671       29.5842533701       73.2878240765
H                10.2497918346       30.8900876829       74.4927458355
N                 3.4687545495       29.4006364020       76.3016403822
C                 3.6370210817       28.6822844017       77.5445078399
C                 2.5621511264       27.6325900718       77.7855506843
O                 1.6311639272       27.5032883141       77.0187019595
C                 3.4780599683       29.7458442037       78.6184186335
C                 4.2282082097       29.3979505835       79.8961220787
C                 1.9768594562       30.0690484199       78.6855938184
C                 5.6501661843       28.9663536293       79.5391430200
H                 3.0027860801       30.2947063826       76.3526951724
H                 4.6131635583       28.1979539370       77.5006386307
H                 3.9816751408       30.6356083475       78.2336684384
H                 4.2841747385       30.2994296244       80.5031926212
H                 3.7220990902       28.6517991130       80.5099492730
H                 1.8377988281       31.1429333938       78.7504115562
H                 1.4846477864       29.7371637566       77.7753279431
H                 1.4879178841       29.5531657592       79.5004853274
H                 6.2906444389       29.0343013984       80.4169031601
H                 5.6917192068       27.9402479358       79.1863646759
H                 6.0513900220       29.6251937649       78.7743354470
H                21.2758695287       38.8897313397       75.4682393373
H                19.6872798286       41.7754130421       76.3071783854
H                 8.7445487830       45.1993990367       69.3241853266
H                 7.9210704589       43.6190469344       72.0500192727
H                 1.5272549042       38.2520929557       80.0438897870
H                20.2933908299       32.5228031080       81.1464027317
H                19.4463248348       27.2448962613       78.1337231399
H                17.1435760526       26.8671787354       74.8987330861
H                15.0994522820       27.9405850982       73.2745529029
H                 1.2916078586       33.3584107641       81.0113098088
H                 5.8855140943       27.5133964257       86.4981188137
H                 9.1963574374       27.6445060609       86.7333231035
H                10.0476912797       25.8693957049       82.4291151834
H                12.8418839975       24.1572192437       83.5364103085
H                11.7688595936       21.6060838084       80.0428624984
H                15.1524919928       21.5060581002       79.7785447512
H                 3.4511242377       35.3440823249       88.7237841567
H                 2.1599315883       37.9078220544       87.0976114327
H                 9.1314301395       43.5658432243       77.9675241070
H                17.1475492869       35.6685543071       85.0992387022
H                 5.3536442333       30.3389591036       73.5016325152
H                 4.2755715390       29.5669994000       75.9391908019
H                 2.6165564805       27.0359484651       78.5862121925
