 194 
 
N                10.8630000000       21.0960000000        7.3780000000
C                10.3670000000       20.4950000000        6.1510000000
C                 8.9020000000       20.7910000000        5.8840000000
O                 8.4810000000       20.8560000000        4.7070000000
C                10.5690000000       18.9710000000        6.4210000000
C                11.8610000000       18.9730000000        7.2400000000
C                11.6650000000       20.1820000000        8.1930000000
H                10.9580000000       20.8250000000        5.2890000000
H                 9.7330000000       18.6050000000        7.0120000000
H                10.6310000000       18.4060000000        5.4980000000
H                11.9980000000       18.0390000000        7.7800000000
H                12.7170000000       19.1390000000        6.5890000000
H                11.0880000000       19.8730000000        9.0700000000
H                12.6090000000       20.6240000000        8.4950000000
N                 8.7040000000       24.2060000000        4.1600000000
C                 9.0780000000       24.1200000000        2.7500000000
C                 7.9430000000       23.4130000000        1.9600000000
O                 7.5490000000       23.8490000000        0.8910000000
C                10.3450000000       23.2420000000        2.6270000000
C                10.6350000000       22.9380000000        1.1480000000
C                11.5110000000       23.9550000000        3.2780000000
H                 9.2170000000       23.6450000000        4.8260000000
H                 9.2170000000       25.1190000000        2.3300000000
H                10.1460000000       22.3010000000        3.1540000000
H                11.6000000000       22.4480000000        1.0590000000
H                 9.8770000000       22.2870000000        0.7200000000
H                10.6470000000       23.8550000000        0.5630000000
H                12.4000000000       23.3290000000        3.2370000000
H                11.7140000000       24.8980000000        2.7740000000
H                11.3060000000       24.1600000000        4.3270000000
N                 7.3600000000       22.3310000000        2.5740000000
C                 6.3880000000       21.5460000000        1.8240000000
C                 5.1250000000       22.3940000000        1.5680000000
O                 4.4040000000       22.3050000000        0.5630000000
C                 5.9360000000       20.3560000000        2.6430000000
C                 6.8780000000       19.1340000000        2.4910000000
C                 6.6400000000       18.4250000000        1.1840000000
O                 5.8210000000       18.8180000000        0.3780000000
N                 7.3270000000       17.2920000000        0.9880000000
H                 7.7880000000       21.8980000000        3.3850000000
H                 6.7880000000       21.2520000000        0.8470000000
H                 5.8770000000       20.6540000000        3.6920000000
H                 4.9360000000       20.0510000000        2.3210000000
H                 7.9150000000       19.4610000000        2.5700000000
H                 6.6860000000       18.4340000000        3.3070000000
H                 7.9240000000       16.8640000000        1.6830000000
H                 7.1920000000       16.7720000000        0.1260000000
N                19.4690000000       25.7650000000        0.8560000000
C                18.5260000000       24.6420000000        0.9660000000
C                19.3330000000       23.3640000000        1.1620000000
O                20.2500000000       23.0560000000        0.4000000000
C                17.6800000000       24.4930000000       -0.3150000000
C                16.4610000000       23.5890000000       -0.1340000000
C                15.3450000000       24.2600000000        0.6410000000
C                16.0010000000       23.1740000000       -1.5320000000
H                19.9520000000       25.9100000000       -0.0210000000
H                17.9040000000       24.8220000000        1.8460000000
H                17.3480000000       25.4830000000       -0.6400000000
H                18.3240000000       24.0910000000       -1.1040000000
H                16.7740000000       22.6830000000        0.4030000000
H                14.4590000000       23.6290000000        0.6380000000
H                15.6400000000       24.4310000000        1.6730000000
H                15.0880000000       25.2160000000        0.1870000000
H                15.1080000000       22.5520000000       -1.4920000000
H                15.7640000000       24.0490000000       -2.1330000000
H                16.7730000000       22.6060000000       -2.0520000000
N                19.0100000000       22.5810000000        2.2240000000
C                19.8390000000       21.4360000000        2.5390000000
C                18.9270000000       20.3030000000        3.0440000000
O                17.8930000000       20.5410000000        3.6590000000
C                20.8890000000       21.7890000000        3.6640000000
C                21.9540000000       22.6600000000        3.0860000000
C                20.2660000000       22.5070000000        4.9240000000
H                18.2860000000       22.8470000000        2.8800000000
H                20.3680000000       21.1210000000        1.6380000000
H                21.3150000000       20.8340000000        3.9860000000
H                22.6630000000       22.9510000000        3.8510000000
H                22.5040000000       22.1370000000        2.3080000000
H                21.5150000000       23.5520000000        2.6460000000
H                20.9370000000       22.3980000000        5.7670000000
H                20.0980000000       23.5570000000        4.7040000000
H                19.3070000000       22.0590000000        5.1700000000
N                19.4550000000       19.0740000000        2.9490000000
C                18.8170000000       17.8630000000        3.5260000000
C                19.9420000000       17.2480000000        4.3570000000
O                20.7050000000       16.4420000000        3.8680000000
C                18.3630000000       16.9510000000        2.3900000000
O                17.6440000000       15.8960000000        2.9710000000
H                20.2890000000       18.9130000000        2.3930000000
H                17.9620000000       18.1640000000        4.1290000000
H                17.7310000000       17.5290000000        1.6980000000
H                19.2490000000       16.5920000000        1.8500000000
H                17.6600000000       15.1150000000        2.4070000000
N                12.1330000000       16.0550000000        4.7290000000
C                12.1540000000       16.9070000000        3.5520000000
C                13.2690000000       17.9520000000        3.7100000000
O                13.9530000000       17.9690000000        4.7270000000
H                12.8060000000       16.3140000000        5.4420000000
H                12.3610000000       16.2900000000        2.6680000000
H                11.1910000000       17.4110000000        3.4230000000
N                13.3760000000       18.8310000000        2.7340000000
C                14.4690000000       19.8220000000        2.7360000000
C                14.1990000000       20.8180000000        3.8170000000
O                13.0320000000       21.0630000000        4.2040000000
C                14.3120000000       20.6160000000        1.4030000000
C                13.3400000000       19.7980000000        0.5430000000
C                12.6090000000       18.8580000000        1.4910000000
H                15.4370000000       19.3320000000        2.8500000000
H                13.8910000000       21.5940000000        1.6330000000
H                15.2760000000       20.7570000000        0.9200000000
H                12.6380000000       20.4300000000        0.0040000000
H                13.8900000000       19.2180000000       -0.2000000000
H                11.6020000000       19.2330000000        1.7070000000
H                12.5310000000       17.8570000000        1.0610000000
N                15.2890000000       21.5190000000        4.1690000000
C                15.2110000000       22.5680000000        5.1470000000
C                15.8380000000       23.8070000000        4.5040000000
O                16.8700000000       23.6950000000        3.8610000000
C                16.0450000000       22.1420000000        6.3800000000
C                15.1980000000       21.0890000000        7.0980000000
C                16.2890000000       23.3410000000        7.2910000000
C                16.0240000000       20.4080000000        8.2170000000
H                16.2210000000       21.2230000000        3.8890000000
H                14.1660000000       22.7480000000        5.4110000000
H                16.9840000000       21.7120000000        6.0260000000
H                14.3110000000       21.5760000000        7.5030000000
H                14.8770000000       20.3260000000        6.3880000000
H                16.7820000000       23.0320000000        8.2080000000
H                16.9240000000       24.0790000000        6.8000000000
H                15.3390000000       23.8150000000        7.5280000000
H                15.4780000000       19.5460000000        8.5900000000
H                16.9670000000       20.0570000000        7.8070000000
H                16.2110000000       21.1060000000        9.0250000000
O                 9.3700000000       15.6180000000        1.7730000000
H                 9.9880000000       16.2750000000        1.4430000000
H                 9.7970000000       15.2320000000        2.5640000000
O                16.2060000000       17.4710000000        6.1640000000
H                15.4870000000       17.6290000000        5.5400000000
H                15.7490000000       17.3510000000        7.0150000000
N                18.7318257523       18.9185130188       -4.3140000000
C                18.0951375171       18.1132893908       -3.2610000000
C                16.9274961804       17.3537035109       -3.9210000000
O                16.0409642406       17.9492218732       -4.5520000000
C                17.5319343231       18.9947859378       -2.1770000000
C                18.5253173295       20.0301960993       -1.5920000000
C                16.8034114967       18.1446244876       -1.1280000000
C                19.8606517357       19.4813290628       -1.1260000000
H                18.3335526483       19.8363422702       -4.4840000000
H                18.8392848842       17.4043883427       -2.8880000000
H                16.7561029999       19.6045652076       -2.6710000000
H                18.7152389968       20.7772421222       -2.3660000000
H                18.0258346806       20.5293254247       -0.7550000000
H                16.3607538201       18.7793300739       -0.3630000000
H                16.0139386518       17.5560315661       -1.5870000000
H                17.4967120763       17.4617926588       -0.6410000000
H                20.4642874120       20.2998014021       -0.7450000000
H                19.7356556943       18.7498285572       -0.3300000000
H                20.4051318072       19.0162619152       -1.9460000000
N                13.4732169601       15.6826906240       -3.6070000000
C                12.3581030991       15.5781244876       -2.6830000000
C                11.0453078593       15.5499525427       -3.5090000000
O                11.0469174413       15.8291646651       -4.6910000000
C                12.2966254199       16.6546069514       -1.5860000000
C                12.1729368146       18.0808419001       -2.1100000000
C                13.0951243592       18.8095662188       -2.8200000000
C                11.0418286139       18.9219787726       -1.9510000000
N                12.6486928880       20.0968082090       -2.9950000000
C                11.3940264680       20.1899541949       -2.4770000000
C                 9.8080167136       18.7050036708       -1.3460000000
C                10.5365797175       21.3010955316       -2.3820000000
C                 8.9374552264       19.7808603978       -1.2640000000
C                 9.3322581983       21.0630415915       -1.7200000000
H                13.3124534751       16.1591411481       -4.4920000000
H                12.4645852424       14.6176920052       -2.1630000000
H                11.4487262586       16.4572113786       -0.9330000000
H                13.2101085744       16.5804077160       -0.9880000000
H                14.0886889294       18.5506619026       -3.1300000000
H                13.1474317953       20.8789670818       -3.3910000000
H                 9.5158540673       17.7430442184       -0.9500000000
H                10.8193045417       22.2934017715       -2.7000000000
H                 7.9726470997       19.7099570928       -0.7780000000
H                 8.6455076003       21.8905285195       -1.5420000000
H                11.5388244617       21.6582521978        7.1852987727
H                 8.2733961135       20.9340359521        6.6484592012
H                 8.8034163154       25.0535271955        4.4460315528
H                 4.8357900706       23.0757188894        2.2400245327
H                19.0341261090       26.5383598628        1.0069941110
H                20.0556508659       17.5090248256        5.3156185483
H                11.3184965540       16.0894372386        5.1103111762
H                15.4026640427       24.7007899024        4.6118063755
H                19.5952467676       19.0601538414       -4.1031872213
H                16.8725657887       16.3580581041       -3.8456815033
H                14.1464294281       16.1338760991       -3.2155710281
H                10.1829608149       15.2995533617       -3.0689342946
