 219 
 
N                 5.4895557381       36.9291957781       -3.5743741156
C                 5.6120542202       35.6196539294       -2.9666729386
C                 4.2749804843       35.3101891357       -2.3000236221
O                 3.6423091187       36.1934519151       -1.7229831232
C                 6.7384270112       35.5983374371       -1.9185776006
C                 8.0866431229       35.8974216566       -2.5821410834
C                 6.7614229746       34.2397847904       -1.2240636295
C                 9.1536646458       36.3036087409       -1.5749778516
H                 5.3914990866       37.7065834986       -2.9272423750
H                 5.8122277018       34.8856409833       -3.7506806541
H                 6.5238349518       36.3900378210       -1.1920568607
H                 8.4109690032       35.0118825320       -3.1305843247
H                 7.9580946821       36.7097008337       -3.3009232461
H                 7.6003468659       34.1727352350       -0.5384295222
H                 5.8494366707       34.0632642187       -0.6601866183
H                 6.8602601651       33.4517095347       -1.9653625257
H                10.0879954782       36.5101764643       -2.0897222975
H                 8.8516622810       37.1991131282       -1.0373148660
H                 9.3292437352       35.5110633854       -0.8532220353
N                10.0268194299       29.8012760881        9.2249919456
C                10.6334644262       31.0483128193        8.8084029034
C                10.8237250797       31.0895150279        7.2930772752
O                11.1994496766       30.1094981303        6.6541138566
C                11.9967785486       31.2534181618        9.4884648908
C                11.8174465076       31.4718841591       10.9898468893
C                13.1381642682       31.6270645365       11.7484438641
N                13.9818800103       30.4521312417       11.6530008242
C                13.7068541792       29.2905473828       12.2408152517
N                12.7275844963       29.1607632254       13.1131685230
N                14.4835255003       28.2276366154       11.9689741159
H                10.4680665448       28.9348986815        8.9321882945
H                 9.9561659464       31.8528758651        9.1095383552
H                12.6082113431       30.3697051168        9.2966734112
H                12.4904431995       32.1125652027        9.0293098107
H                11.2166421444       32.3662522262       11.1596905299
H                11.2696424936       30.6262416517       11.4036143770
H                13.7076493746       32.4592049307       11.3384384841
H                12.9052874122       31.8290470352       12.7959518748
H                14.7421002706       30.4995126609       10.9862744362
H                12.2238348306       29.9659084224       13.5339094619
H                12.6009688443       28.2449451200       13.5333828699
H                15.1413064399       28.2371023988       11.2088353235
H                14.2549597345       27.3405417620       12.3894784206
N                10.5333653699       32.2698465573        6.7367489724
C                10.8295011116       32.5911690236        5.3572193443
C                12.0609054898       33.4906410454        5.3895874229
O                12.1048956269       34.4523074259        6.1567544838
C                 9.6289424261       33.3129414968        4.7339600316
C                 9.7404803699       33.5661446207        3.2283550079
C                 9.6825023753       32.2652582355        2.4348056879
C                 8.5988326114       34.4820377468        2.7881076028
H                10.3034731940       33.0560410451        7.3343668767
H                11.0581224156       31.6604232379        4.8365887230
H                 8.7378553857       32.7131487590        4.9280277321
H                 9.5181497159       34.2731167804        5.2415697353
H                10.6970504393       34.0608559116        3.0244554758
H                 9.7539696215       32.4662530913        1.3692488779
H                10.4967593089       31.5988284588        2.7026462135
H                 8.7389439952       31.7600958808        2.6218915574
H                 8.6602434197       34.6691612647        1.7188737315
H                 7.6392873348       34.0161170956        3.0008852524
H                 8.6368530693       35.4364925016        3.3054457234
N                13.0604197509       33.1366269296        4.5860170055
C                14.3130174951       33.8458865832        4.4809630421
C                14.4791937715       34.4521438292        3.0866473480
O                14.1084799935       33.8415329935        2.0883172122
C                15.5160274414       32.9024379321        4.6854892734
C                15.7045335301       32.5414963201        6.1274328258
C                15.1327525034       31.3987307371        6.6692876762
C                16.4516483029       33.3661919333        6.9563511393
C                15.3031150171       31.0915159872        8.0045724570
C                16.6128265109       33.0827914866        8.2981041441
C                16.0380856628       31.9360424251        8.8306030322
O                16.1711140280       31.6031999668       10.1425065062
H                12.9637305433       32.3007744124        4.0181686572
H                14.3314233727       34.6373347146        5.2357242392
H                15.3686724302       32.0017655907        4.0807936956
H                16.4183019808       33.3936754607        4.3102991818
H                14.5603205082       30.7376846433        6.0330863215
H                16.9341224169       34.2339790105        6.5324332446
H                14.8766578186       30.1865065910        8.4065242549
H                17.2191904138       33.7399165602        8.9034730461
H                16.7165966850       32.2601787238       10.6006214470
N                15.7312303101       36.4958373717        8.0033648137
C                14.3136994231       36.2198453858        8.1633492041
C                13.5325983057       37.4276225531        7.6153200445
O                13.7912610430       38.5644391648        7.9888395312
C                13.9776735557       36.0205207273        9.6424447214
C                12.5131885519       35.6234627798        9.8505258767
S                11.6804017463       36.6478235300       11.0872853958
C                11.4280269821       38.2093857093       10.1884203057
H                16.2538628025       36.7922847957        8.8135303593
H                14.0696079976       35.3223126946        7.5837987390
H                14.6376114811       35.2527316561       10.0460190038
H                14.1852134623       36.9607774814       10.1598754413
H                11.9433853781       35.6997794530        8.9259832869
H                12.4149892064       34.6053503637       10.2224907835
H                10.9707233604       38.8969055562       10.8892769717
H                12.3753188116       38.6030217883        9.8350562629
H                10.7615707507       38.0404817194        9.3471892674
N                12.5331467102       37.1168962056        6.7877520209
C                11.5827289247       38.0950939272        6.3243076268
C                10.1632313348       37.8181189598        6.8282137684
O                 9.3686758971       38.7385373042        6.9476148081
C                11.6044225658       38.2931516937        4.7952120430
C                11.3898315792       36.9769378830        4.0415864103
C                12.9216282512       38.9524333726        4.4008621657
C                11.0028292368       37.2005330828        2.5840358261
H                12.4751627782       36.1771381878        6.4142580275
H                11.8741554465       39.0479634321        6.7862239396
H                10.7734123772       38.9666929323        4.5591765013
H                12.3008896656       36.3730713129        4.0848944960
H                10.5942464701       36.4102941371        4.5302429922
H                12.9382251452       39.1532858234        3.3355038744
H                13.0549858666       39.8892568051        4.9360582749
H                13.7547343013       38.2958422213        4.6491131884
H                10.8642416754       36.2463856273        2.0837670591
H                10.0787838222       37.7665208895        2.5226590239
H                11.7762116831       37.7446604629        2.0514189176
N                 9.8456598089       36.5517829538        7.1524480068
C                 8.5910405366       36.2399638602        7.8121187204
C                 8.8301802389       35.1186901264        8.8246346455
O                 9.6673272834       34.2524562528        8.6122921295
C                 7.5381473335       35.7797908944        6.7853491281
C                 6.1157905196       35.8443395843        7.3238785297
C                 5.1184110299       35.3271192965        6.2981637814
O                 5.4392681610       35.0108989561        5.1609658079
N                 3.8650918881       35.2544623834        6.7586265539
H                10.5181230190       35.7957786846        7.0903680909
H                 8.2456978226       37.1574318434        8.3004690668
H                 7.6114842510       36.4293060790        5.9115511224
H                 7.7523723296       34.7575726082        6.4716485259
H                 6.0105764372       35.2432065890        8.2295878747
H                 5.8530002281       36.8769200331        7.5627436589
H                 3.6621264174       35.5081696451        7.7107208915
H                 3.1035685242       34.8515076003        6.2201943104
N                 1.9886283039       33.0179999329        3.4890668395
C                 3.3576186162       33.4667916621        3.4282108462
C                 3.5437082833       34.3922785978        2.2299859178
O                 2.8320024420       34.3175187585        1.2384422744
C                 4.3675498651       32.2953799490        3.3481562995
C                 3.9265432424       31.1787087444        4.2886218999
C                 4.5250591218       31.7522274328        1.9333958989
H                 1.6149146505       32.5399276474        2.6751322809
H                 3.5585809807       34.0216447368        4.3461722216
H                 5.3271493211       32.6947348751        3.6885066723
H                 4.7376214364       30.4710953207        4.4334097034
H                 3.6374766865       31.5942809756        5.2496964462
H                 3.0697894419       30.6481168050        3.8791160730
H                 5.1804648087       30.8863587323        1.9438882010
H                 3.5597210909       31.4529760730        1.5399973039
H                 4.9507659159       32.4954730713        1.2641808164
N                 4.5817029600       35.2301097685        2.3621386008
C                 5.0343484653       36.0496382135        1.2705486445
C                 4.8040108804       37.5444389869        1.4635462959
O                 5.1853988477       38.1465246022        2.4618473615
H                 5.0494150767       35.3003737592        3.2583191001
H                 6.1136107412       35.9042449995        1.1430335161
H                 4.5003141163       35.7161445396        0.3807200603
N                15.4098688836       32.7718060065       -1.6523122907
C                14.2372000273       32.6844384606       -0.8044235198
C                14.1166281141       31.2329095182       -0.3516007694
O                14.3543342278       30.3163468953       -1.1366539326
C                12.9621361347       33.1228376845       -1.5584787664
C                13.0557802686       34.5817787656       -2.0242153706
C                11.7323073170       32.8880813321       -0.6894377601
C                12.9567441396       35.6061841307       -0.9024126940
H                15.5793376359       31.9946832134       -2.2802355641
H                14.3990290592       33.3261849599        0.0617802952
H                12.8949527093       32.4864994880       -2.4487162545
H                14.0051059958       34.7129008637       -2.5470921135
H                12.2501415971       34.7537612878       -2.7416955629
H                10.8511848530       33.3000233518       -1.1744041313
H                11.5678924899       31.8238008240       -0.5347719477
H                11.8663693842       33.3545600849        0.2828172772
H                13.1814190176       36.5926905176       -1.2955857487
H                11.9602978120       35.6184965126       -0.4717167828
H                13.6688724785       35.3731583714       -0.1197879246
N                13.7373295645       31.0349526434        0.9173977337
C                13.7080741150       29.7060869427        1.5046528620
C                12.6888689338       29.6326849864        2.6341109906
O                12.5302402589       30.5801401517        3.4058464104
C                15.0841993675       29.3162577669        2.0573690541
C                15.2944903424       27.7623597315        2.1444394941
O                14.2849760451       27.0414862360        2.0313137226
O                16.4647461477       27.3869202876        2.3122529691
H                13.6697932616       31.8309089672        1.5418685080
H                13.4316348902       28.9942221532        0.7194033714
H                15.8721512599       29.7106324119        1.4106521734
H                15.2518583589       29.7243757279        3.0594183130
N                11.9706889758       28.5070810337        2.7061039307
C                11.0192336564       28.2575411316        3.7765880573
C                11.5409716744       27.0873337645        4.6237535064
O                11.8328496286       26.0065209756        4.1323607340
C                 9.6409911427       27.9578877744        3.1686001418
C                 8.4817105092       28.0243917100        4.1719255404
C                 8.2166006582       29.4561328650        4.6263590598
C                 7.2100402050       27.4661739050        3.5356213809
H                12.3537258068       27.7021394966        2.2213979331
H                10.9909178270       29.1645275989        4.3848484015
H                 9.4706914413       28.6787703760        2.3656995336
H                 9.6899235712       26.9568212655        2.7330792265
H                 8.7465738113       27.4099685855        5.0390676013
H                 7.3594672764       29.4842720680        5.2936698109
H                 9.0742420145       29.8659994729        5.1508590002
H                 8.0040969036       30.0807196928        3.7631695477
H                 6.3933768943       27.4871921580        4.2516690700
H                 6.9274101870       28.0725319548        2.6782691620
H                 7.3625872110       26.4422175464        3.2066029783
H                 6.2228031443       37.1015931754       -4.0669463221
H                 3.9046252007       34.3817655374       -2.3294614584
H                10.0085622462       29.7616231967       10.1239326130
H                14.8938559680       35.3559148762        2.9805664484
H                16.1511863336       35.7536750940        7.7155591641
H                 8.2992755951       35.0881236423        9.6715147724
H                 1.8927861473       32.4374341965        4.1700644216
H                 4.3258663945       38.0714752861        0.7609720365
H                15.3469307558       33.4995772709       -2.1780382447
H                11.6517382337       27.1956321536        5.6116817570
