 123 
 
N                67.5809215091       55.4375838602      210.7144542070
C                66.3639356864       56.0556357229      210.2584684125
C                65.2963394850       54.9960935121      210.0093111666
O                64.1077185137       55.1766213023      210.3667927391
C                66.5561365672       56.9797680845      209.0809842299
C                65.2967516305       57.4162230517      208.5645542576
C                67.4205171374       58.1767079821      209.4188692103
H                68.2938917475       55.6047017095      210.1592383515
H                66.0290038525       56.6239385549      211.0252661004
H                67.0278604809       56.4430243135      208.3604600307
H                65.4202524472       58.0555959427      207.8114448868
H                64.7430108812       56.6565139314      208.2509512953
H                64.7897094999       57.8926826002      209.2889541744
H                67.5636823996       58.7312776491      208.6238098716
H                67.0008168250       58.6864164938      210.1365728994
H                68.3215187192       57.8457820222      209.7414797781
N                63.8552196541       54.1975942635      213.4301590627
C                63.0687430412       55.2152226701      214.0207962944
C                61.6775182542       55.1940773904      213.4279975677
O                60.6405850796       55.2232316063      214.1266486279
C                63.7144144605       56.5372949387      213.9104410560
C                62.7245424878       57.6171632659      214.3172523455
C                64.9957790986       56.5664982641      214.6248791962
H                64.5911564440       54.4827474351      212.9665291910
H                62.9610976656       54.9954972252      214.9938663394
H                63.9571916707       56.7733785290      212.9539969682
H                63.1673780927       58.5191320134      214.3004088789
H                61.9523271590       57.6289967465      213.7200129339
H                62.4310806171       57.4418488852      215.2513174668
H                65.4604559821       57.4482891398      214.5145879262
H                64.8190189423       56.4529242805      215.6131164793
H                65.5857339723       55.8501646419      214.3254383393
N                62.4558980978       63.6077770382      207.7207254492
C                61.6688733809       64.0309612989      208.8573834147
C                61.1960985481       65.4410610269      208.6993090703
O                60.1232766953       65.7398118506      209.1628406034
C                62.4528534836       63.9336678399      210.1864052808
C                63.0895619035       62.6061124519      210.5477312838
C                62.4235443510       61.3987973774      210.4058587025
C                64.3287995001       62.5414357611      211.0822387671
C                63.0094054707       60.1768718884      210.7649949971
C                64.9413915056       61.3765710441      211.4450250206
C                64.2943724605       60.1848058005      211.2872668142
O                64.9113797161       59.0552370905      211.6524065676
H                63.3750373845       63.6234239500      207.9111280581
H                60.9055711118       63.4125112848      208.9193650357
H                63.1803428261       64.6063458850      210.1482959072
H                61.8273587785       64.1659670047      210.9159729490
H                61.5219158465       61.3979408236      210.0323261271
H                64.8187084045       63.3845010164      211.2401178144
H                62.5458118977       59.3514228589      210.6412553424
H                65.8381204903       61.3888045152      211.8367791181
H                65.7597311901       59.2248904169      211.8618434292
O                66.8886805646       59.3781707372      213.5784836151
H                67.5895739700       59.8893928167      213.3725237241
H                66.4086122271       59.9323515720      214.1020478696
N                68.8898622202       59.3400798356      218.0822048384
C                68.2224014600       59.2415899979      216.8130298829
C                66.7551248006       59.5495552967      217.0001683703
O                66.1346820116       60.2181829467      216.1851484637
C                68.3682420759       57.8783884564      216.1004868757
C                69.7922713269       57.5086212131      215.6897102662
C                70.3939208819       58.4383543284      214.6527638525
O                69.7008608627       58.8194024232      213.6240359649
O                71.5483820787       58.8687268474      214.8942825150
H                69.2434658807       58.5207396778      218.3825496155
H                68.6590719614       59.9133197895      216.2142612078
H                68.0436042776       57.1747446494      216.7253419324
H                67.8158952431       57.8809540843      215.2894214381
H                70.3750246192       57.5459401877      216.4986005153
H                69.7974317610       56.5944151354      215.3266917540
N                66.5279244098       63.3466278444      217.2766599303
C                66.6742383568       63.8846482379      215.9443713258
C                65.3184931293       63.8302787581      215.1478972596
O                64.9924150422       64.7278000742      214.3410945036
C                67.7630892240       63.1990521738      215.1501049236
C                68.1243901902       63.7211178115      213.8162916444
C                68.8977570582       62.6769465932      212.9532164890
C                70.2114882846       62.2859346194      213.5684218473
N                70.8589184554       61.3528563648      212.7167152752
H                67.1692567846       62.7078523042      217.4666397777
H                66.9085939356       64.8509307637      216.0180825512
H                68.5921844226       63.1884138155      215.7074821102
H                67.4828206730       62.2333160440      215.0242352623
H                67.3013937033       63.9809540325      213.3179380663
H                68.7054533456       64.5219171126      213.9067332487
H                68.3327459404       61.8757859284      212.8555615960
H                69.0719854212       63.0675634833      212.0536332157
H                70.7766183967       63.0904043648      213.6998175324
H                70.0505477275       61.8542463813      214.4472332631
H                71.6932795322       61.0975679067      213.0595339265
H                70.3766837649       60.6086746755      212.5623695534
H                71.0542773279       61.7481870024      211.8779112961
N                64.5540227688       62.7762069069      215.3357871604
C                63.3095632234       62.6380231860      214.6755799525
C                62.3418521063       63.6644233389      215.1704971978
O                61.7029711591       64.3600792207      214.4357252916
C                62.7717121903       61.2493708744      214.8087181171
C                61.3341453780       61.0798442491      214.5888544636
C                60.8010733503       60.9022664113      213.4399664710
C                60.4684857016       61.1170992467      215.6143928733
C                59.4165832182       60.7039161900      213.2738838932
C                59.1173936161       60.9289139756      215.4518684433
C                58.5847138490       60.7381777494      214.2332075502
H                64.7819652849       62.0746409934      215.8889668549
H                63.4382221888       62.7915667121      213.6822250473
H                63.2542085048       60.6424720329      214.2125067933
H                62.9650348170       60.9655941711      215.7697074097
H                61.3703885347       60.9422357924      212.6113973575
H                60.8092777303       61.2473612617      216.5455823524
H                59.0653550213       60.5615750892      212.3315742017
H                58.5211879546       60.9284470648      216.2546465291
H                57.6351376066       60.6362283441      214.1232006844
H                67.7893046467       55.7514196584      211.5318179937
H                65.5387293529       54.1395115348      209.5537736070
H                64.1602672033       53.6437847053      214.0706596216
H                61.5572386284       55.1552015563      212.4360189988
H                62.2276555706       62.7673976104      207.4934200023
H                61.7654168900       66.1084485994      208.2192356867
H                69.5733056625       59.9221140052      218.0178520083
H                66.2703662123       59.2045680787      217.8039052244
H                66.6071097621       64.0105232821      217.8791319444
H                62.2071119005       63.7918162783      216.1531548777
