 552 
 
N                65.5447484215       54.2173308011      197.1438950198
C                64.9520926006       54.8531853636      195.9934332805
C                64.9828748363       56.3911956349      196.1188683590
O                65.3639993780       57.0838966463      195.1883857270
C                63.5276097243       54.3659391142      195.7955786932
C                62.7876485034       55.2283325345      194.7519122908
C                63.3672912769       55.1336087440      193.3460153478
C                61.3176307568       54.8405669288      194.7016396160
H                64.9280354214       53.6052123083      197.6739441960
H                65.5587227280       54.6363767473      195.1037509165
H                63.5240931648       53.3154586988      195.5044011719
H                63.0077718861       54.4603433058      196.7511821285
H                62.8510693132       56.2725129691      195.0760386324
H                62.8213467755       55.7896647098      192.6749704292
H                64.4040095283       55.4506492132      193.3160331624
H                63.2993025983       54.1082774978      192.9890915925
H                60.7856975308       55.5029992273      194.0278202072
H                61.1967877149       53.8189025933      194.3581947467
H                60.8714928315       54.9536884517      195.6817391892
N                67.3529568218       58.7555887701      193.5475643812
C                66.6399765336       59.7193674946      192.7403897025
C                67.0762462388       61.1738064296      192.9652162659
O                66.6323655364       62.0534619696      192.2338940679
C                65.1383629109       59.6700910736      193.0729983891
C                64.4505011311       58.3949942895      192.6163682407
C                64.3971191169       58.4303298134      191.0716940100
O                63.7606107238       59.3837609804      190.5621936643
O                64.9904732101       57.5034487857      190.4813612871
H                66.7867341586       58.2902203802      194.2497402167
H                66.7883508733       59.5038183688      191.6735550450
H                65.0345877076       59.7992435948      194.1563260219
H                64.6566221888       60.5118267731      192.5709750496
H                64.9789817127       57.5093803918      192.9521311767
H                63.4259893287       58.3890856137      192.9931614542
N                55.9627168505       63.2528108057      197.8020585263
C                54.6931126286       62.7596668972      197.3194836464
C                54.5894086583       62.9005241823      195.7707291734
O                54.3429212573       61.9649394904      194.9949653156
C                53.5438464165       63.5000537835      198.0012575862
O                53.6493408934       63.4880318904      199.3945786278
C                52.2892238626       62.7304817049      197.6659778537
H                55.9772583273       63.9786797726      198.5072627783
H                54.6212782957       61.6868022250      197.5505340807
H                53.5027825176       64.5320065837      197.6260911991
H                54.3197136425       64.1259990964      199.6936482676
H                51.4228051794       63.2577637494      198.0486495134
H                52.1769202362       62.5986157179      196.5942554702
H                52.3395629004       61.7530330892      198.1400294840
N                54.7910535701       64.1536907111      195.3528446248
C                55.0640284601       64.4987181883      193.9757497543
C                55.8146206346       63.3668274316      193.2624525373
O                55.3436840175       62.7984651114      192.2708955381
C                55.9111531347       65.7667016609      193.9596144642
H                55.0622609229       64.8449835544      196.0476642992
H                54.1192920018       64.6477598477      193.4351230774
H                56.0901720074       66.0836862069      192.9364921722
H                55.3750192109       66.5529409868      194.4872484074
H                56.8603531277       65.6025637378      194.4568182770
N                57.0547789135       63.1666828237      193.7022998289
C                58.0051142716       62.4352600198      192.9054052142
C                57.6367301331       60.9523434511      192.9359193841
O                57.5904024167       60.2993659215      191.8886081121
C                59.3903707102       62.8756455636      193.3214841731
H                57.3972079034       63.6124763630      194.5444331353
H                57.8406168679       62.7190295035      191.8543045705
H                60.1566839287       62.3958551611      192.7221698910
H                59.4598638064       63.9543567693      193.2063741831
H                59.5499950136       62.6336902914      194.3699928321
N                57.2779567646       60.3948500765      194.0888548745
C                56.7932767293       59.0373749793      194.0502762943
C                55.4703178913       58.8598283551      193.2992426972
O                55.2488221701       57.7721539568      192.7822015013
C                56.6399454248       58.4726296905      195.4417800521
C                57.9729918156       58.3679590557      196.1607796665
C                57.7031455035       58.0897426365      197.6446591687
C                58.8246443647       57.2922369580      195.5013945953
H                57.1924036062       60.9307258171      194.9431304008
H                57.5125387860       58.4441629389      193.4706095739
H                55.9657362588       59.1306993500      195.9979106409
H                56.1695282676       57.4892984238      195.3874544973
H                58.4848661394       59.3328436157      196.0880270556
H                58.6282380570       58.0423862980      198.2133296444
H                57.0817806007       58.8751516095      198.0673074125
H                57.1769656541       57.1445895782      197.7667372228
H                59.7449499011       57.1504958934      196.0622281608
H                58.2818424453       56.3505174596      195.4841808051
H                59.0864857328       57.5735801986      194.4874032205
N                54.6192525334       59.8983987063      193.2346091600
C                53.4547566566       59.8438517855      192.3644914516
C                53.8318210495       59.6946557253      190.9046255904
O                53.4175430346       58.7203940642      190.2194120062
C                52.5897900552       61.0947361092      192.4931039296
O                51.9153398795       61.0956164009      193.7174532330
H                54.7894848238       60.7643371265      193.7299691362
H                52.8278091728       58.9740992505      192.6252108643
H                53.2116133181       61.9922942712      192.3829045887
H                51.8216161357       61.0806712378      191.7118942156
H                52.6118400230       61.2330406069      194.3889008075
N                54.5947889402       60.6832457092      190.3538192477
C                55.1722793086       60.4487227587      189.0253532558
C                55.6596294522       59.0228905211      188.8124492970
O                55.2730724686       58.3510479475      187.8516199300
C                56.3026271651       61.4326832573      188.7798343962
C                55.7061994142       62.8278900345      188.6297033969
C                55.3107943095       63.0540303641      187.1649954699
O                56.1754275015       63.1729673691      186.3049616502
N                53.9800062756       63.1337508690      186.9282254317
H                55.0638841616       61.3285055774      190.9788759163
H                54.3670558743       60.5921109744      188.2884492426
H                56.9963086078       61.3727643837      189.6192856711
H                56.8329822614       61.1613332703      187.8655429601
H                54.8620145494       62.9474991870      189.3065989176
H                56.4658243411       63.5715944415      188.8683018542
H                53.3161847109       63.0606804758      187.6785044185
H                53.6326714145       63.3192622313      186.0000387610
N                56.6165355708       58.5614314421      189.6356121302
C                57.0832691549       57.2074749635      189.4738315427
C                55.9411134826       56.1997755906      189.3056516850
O                55.9872930769       55.3690037744      188.3965218298
C                57.9923317091       56.8623315782      190.6345416447
C                58.6656264515       55.5138672781      190.4296054078
C                59.0553891226       54.9505062794      191.7914618940
N                59.8167905074       53.7329351022      191.7323771920
C                60.9729322205       53.6891825548      191.0772828372
N                61.4858463510       54.7720249096      190.4652671163
N                61.5446436327       52.4923561667      190.9070213803
H                56.8508875962       59.0695222066      190.4774563357
H                57.6372486544       57.1548821095      188.5227744627
H                58.7271513930       57.6649587823      190.7403934018
H                57.3717858192       56.8546232419      191.5347369726
H                57.9582652574       54.8375858611      189.9505967616
H                59.5144586221       55.6442029852      189.7628039132
H                59.6006993603       55.7278239031      192.3465307506
H                58.1443926533       54.7400719984      192.3460085714
H                59.5306097641       52.9972876296      192.3930162309
H                61.2498536227       55.6992478644      190.7701386820
H                62.3728320435       54.6857493145      189.9885296092
H                61.1803191656       51.7312713796      191.4615672172
H                62.4836611182       52.4197801814      190.5451989683
N                54.9371450926       56.1874029734      190.1953080231
C                53.7719936738       55.3583219207      189.9349701165
C                53.0969067709       55.5184325329      188.5414804000
O                52.5989560304       54.5427540717      187.9636987005
C                52.7292184575       55.5663827456      191.0324702442
H                54.8220493576       56.9295817610      190.8698855002
H                54.1025105619       54.3117588113      189.9500358226
H                51.8469957857       54.9499381433      190.8576557727
H                53.1442610114       55.3351381175      192.0091154755
H                52.3947735025       56.6038568135      191.0404366377
N                53.0785985387       56.7291836645      187.9924915709
C                52.4502656540       56.8975149135      186.7145407792
C                53.3610505511       56.4925179698      185.5769037386
O                53.0284671812       55.5620111063      184.8485773574
C                52.0167673654       58.3130476118      186.5371513929
C                50.8408513112       58.4935646264      187.4599569271
S                49.9910078531       59.9487065103      186.9424292422
C                51.4143745250       61.0573814214      187.2910342693
H                53.3952776959       57.5362413241      188.5163611679
H                51.5814526105       56.2203356364      186.6628695434
H                52.8390105898       58.9725718792      186.8078925269
H                51.7048907214       58.5030916894      185.5079226904
H                50.1324397420       57.6589121848      187.3862224656
H                51.1271426351       58.5773925945      188.5159776411
H                51.0202402726       62.0631056440      187.2452932350
H                51.7542718354       60.8273121832      188.2994434868
H                52.1845587399       60.9061318723      186.5484030419
N                54.4559179906       57.2309583079      185.4363372846
C                55.4419261374       57.0672150188      184.3781953798
C                56.0407437217       55.6320480228      184.1913872329
O                56.1070207771       55.1224573459      183.0733902064
C                56.5051911834       58.1549083335      184.5705603078
C                55.8551946738       59.5265503606      184.3819085754
C                57.6333296433       57.9520595104      183.5852131449
C                56.8233685184       60.6844610178      184.6074054216
H                54.7361015427       57.8017483884      186.2310342241
H                54.9146923235       57.2378894601      183.4275578286
H                56.8748847887       58.0819390535      185.6011211120
H                55.4436768260       59.5859835407      183.3714614342
H                55.0148969305       59.6264657785      185.0749125677
H                58.4012168614       58.7050567812      183.7151873748
H                58.0805933968       56.9701751735      183.7044946998
H                57.2358660701       58.0134119340      182.5734780905
H                56.2901607213       61.6296872276      184.6006325721
H                57.2990964445       60.5855578546      185.5804682375
H                57.5881369632       60.7155046496      183.8402880184
N                56.5457151035       55.0230261672      185.2768892993
C                57.1638022263       53.7043713969      185.2382551105
C                56.2733838597       52.6206624222      185.8196469637
O                56.6008664886       51.4599611984      185.8334509090
C                58.4626796964       53.7175188955      186.0536571584
C                59.2865635014       54.9247387448      185.6372606660
C                60.3337892473       55.3014724799      186.6595328289
C                59.9277214455       54.6234514981      184.3024156290
H                56.4034932675       55.4254496986      186.1947012210
H                57.3452297345       53.4725547513      184.1845742192
H                58.1879404075       53.7894565237      187.1092965963
H                58.9992076052       52.7866111164      185.8779595473
H                58.6155903097       55.7810980165      185.5334498994
H                60.8959508920       56.1656927940      186.3135576491
H                59.8634155243       55.5649550255      187.6039134944
H                61.0253926970       54.4793558263      186.8216080259
H                60.5413739093       55.4596058188      183.9755609719
H                60.5573744611       53.7411626318      184.3791055338
H                59.1732256191       54.4512056974      183.5378749126
N                55.1512443883       53.0700456465      186.4194481192
C                54.1354123990       52.1332371840      186.8214649454
C                54.5618575474       51.2726829305      187.9837337765
O                54.0093059930       50.2123659604      188.2406624220
H                54.8529067304       54.0233941161      186.3014895736
H                53.2498110580       52.6947566035      187.1294469328
H                53.8450723864       51.4921999522      185.9802454768
N                55.5988518206       51.7820650738      188.6781264134
C                55.9946265383       51.2944999663      189.9987760938
C                55.4359131330       52.1860828337      191.1130381030
O                55.6563303879       53.3960408102      191.2082511277
C                57.5223705050       51.1888447943      190.0644723237
C                57.9598271900       49.9446259316      189.2791404490
C                59.3086169130       50.1618220494      188.6013566540
C                59.7194973622       48.9257137740      187.8241896272
N                59.7431018798       47.7081739082      188.6930288292
H                55.8553199926       52.7370227725      188.4601264126
H                55.5347853330       50.3049950414      190.0832240146
H                57.9382591019       52.1000623312      189.6345437533
H                57.8373823699       51.1474347493      191.1071340486
H                57.9956289406       49.1260817201      189.9941977619
H                57.2105550973       49.7470473758      188.5118700193
H                59.2060018618       50.9920993793      187.9027014940
H                60.0584571565       50.4418207040      189.3395525968
H                59.0027393567       48.7732800895      187.0150449043
H                60.7080173122       49.0784468419      187.3918622240
H                60.0962210699       46.9120001716      188.1435404901
H                60.3568303398       47.8719764792      189.5045160809
H                58.7885647548       47.4952032333      189.0136217649
N                54.7082139298       51.4851713098      192.0160937165
C                53.8465763671       52.1654219723      192.9397265389
C                54.1077951182       51.7551053521      194.3819092808
O                53.4708477356       52.2585255977      195.3134021224
C                52.3560062361       51.9723803523      192.5959479468
O                51.9572330460       50.6594548856      192.8858873079
H                54.5105926926       50.4895302309      191.8378326162
H                54.0296261734       53.2451561783      192.8643362880
H                51.7746164288       52.7121061193      193.1708921832
H                52.2058548801       52.2154940613      191.5347278066
H                51.1045318719       50.5229829200      192.4448681271
N                55.0190531364       50.7756415086      194.5573516737
C                55.2618434800       50.2815032071      195.9054961436
C                55.7406749548       51.3433945933      196.9115279101
O                55.2020434210       51.5305544499      197.9962842415
H                55.7266534182       50.6517621199      193.8435603372
H                54.3164971599       49.8938992779      196.2920741893
H                56.0097820458       49.4907265425      195.8549806491
N                56.8363640387       51.9944535165      196.5050150677
C                57.4278573846       53.1007430112      197.2282489166
C                56.3328562828       54.1291729507      197.5861403535
O                56.0932065043       54.4059505045      198.7517536876
C                58.6154619011       53.6284509097      196.4014637611
C                59.6738674241       52.5399324659      196.2358688776
C                59.6240552232       51.7056694618      194.9224429076
O                59.0101248722       52.1037900336      193.8986701903
O                60.2663966096       50.6399202573      195.0191635482
H                57.1543592337       51.8776174522      195.5518628109
H                57.7934675746       52.7337081076      198.1988953565
H                58.2637689678       53.9378813383      195.4151411957
H                59.0317222937       54.4949588588      196.9174447596
H                60.6841493946       52.9410045507      196.2911966364
H                59.6005096361       51.8039222147      197.0399181557
N                55.6199172112       54.6735828902      196.5964159362
C                54.4392981956       55.4330559182      196.9175730863
C                53.5693446000       54.8086553646      198.0067226688
O                53.1492544743       55.5870238993      198.8841804751
C                53.6345638229       55.6596687871      195.6480257289
C                52.5256566603       56.6930415092      195.7692878956
C                53.0206050313       58.1012042245      196.0366923918
C                51.7898420333       56.7029644899      194.4441600948
H                55.7557376490       54.3746115400      195.6346866034
H                54.7368432606       56.4035767931      197.3428090416
H                54.3062066245       55.9938197071      194.8497437984
H                53.1906985764       54.7064698154      195.3430076547
H                51.8179812998       56.4014650183      196.5631484523
H                52.1684171609       58.7819463880      196.0462990535
H                53.5206929176       58.1791239631      196.9993563513
H                53.6884532681       58.4187641308      195.2395751155
H                50.9608323989       57.4139498735      194.4401627317
H                52.4667846272       56.9731641489      193.6347934688
H                51.3546662815       55.7273631233      194.2181618538
N                53.2981270014       53.4874826717      198.0141666460
C                52.3303214338       52.9398536133      198.9763718273
C                52.9000048391       53.0649180966      200.4403178349
O                52.1964956965       53.4212486636      201.3946745622
C                51.9936051350       51.4890166836      198.6090372102
C                50.9414892472       51.3758728457      197.4882950014
C                50.9762519760       50.0204630563      196.7319735665
C                49.5581940096       49.4634696087      196.5661818846
N                49.4757098471       48.2391001631      195.7102755454
H                53.4555315311       52.9397368083      197.1732232349
H                51.4112334572       53.5566664332      198.9722140352
H                52.9344129262       51.0184508362      198.3157075262
H                51.6092633899       50.9982326727      199.5057637255
H                49.9530737440       51.5573441137      197.9238461622
H                51.0914560876       52.2020465889      196.7837695338
H                51.4571973090       50.1923145560      195.7676128862
H                51.5781427284       49.3256075323      197.3192701008
H                49.1384389443       49.2435672289      197.5481052242
H                48.9141382960       50.2335596160      196.1396843564
H                48.4635528789       48.0405620657      195.5785985604
H                49.8796463421       48.4242435093      194.7812999060
H                49.9534451038       47.4427837786      196.1644556096
N                54.1922220690       52.7126411102      200.5187993494
C                55.0399410367       52.7515731494      201.6956954282
C                55.0480388697       54.1998546271      202.2640004996
O                54.8227702454       54.4846286409      203.4420244840
C                56.5196831561       52.3551280460      201.4407849637
O                56.6888533463       51.0417669597      200.9233726656
C                57.2489463640       52.4260249518      202.7756525688
H                54.6191619098       52.3895076723      199.6538529022
H                54.6307568628       52.0876793538      202.4700932556
H                56.9381367834       53.0811478915      200.7262205686
H                57.6367542696       50.8585356104      200.9332909244
H                58.3056118417       52.2095765228      202.6309707737
H                57.1509752741       53.4053430960      203.2333868010
H                56.8353246499       51.6747504440      203.4452675021
N                55.3591052195       55.1249025270      201.3645061787
C                55.4343735015       56.5036761285      201.7782880605
C                54.1205484796       57.0055050051      202.3268899350
O                54.1045277958       57.8559683608      203.2072805930
C                55.7676402567       57.4380158057      200.6285180095
C                55.5146361204       58.8759193203      200.9487655806
C                54.7782178772       59.7399502892      200.1812169526
C                56.1698286583       59.6770158737      201.9290544751
N                54.9918790919       61.0347332453      200.5619672876
C                55.8032229068       61.0216319770      201.6617085508
C                57.0947425941       59.4139586764      202.9323008512
C                56.2570621168       62.0804262574      202.4410994986
C                57.5657652064       60.4725310846      203.6793449923
C                57.1207170366       61.7859232996      203.4708878947
H                55.4353136263       54.8840009297      200.3858335282
H                56.1803931835       56.5868749004      202.5768229105
H                56.8177723352       57.3099796871      200.3497752417
H                55.1486560729       57.1543242993      199.7722341973
H                54.1286656557       59.5118845566      199.3568040096
H                54.4662297081       61.8302375814      200.2248490796
H                57.4410177589       58.4064152719      203.1104754664
H                55.9468410346       63.0895335387      202.2150372374
H                58.2844980355       60.2965274140      204.4648545109
H                57.4926701887       62.5683819524      204.1154365889
N                53.0269485734       56.4815605157      201.7532311272
C                51.7191589590       56.9165298080      202.1869163708
C                51.4555319106       56.5885553968      203.6727679095
O                51.0792327980       57.4671747655      204.4530406787
H                53.0935051340       55.9693375050      200.8840370584
H                51.6078284506       58.0024212151      202.0778516982
H                50.9590175205       56.4157704676      201.5814619463
N                51.6653276165       55.2994981377      204.0108492979
C                51.7801442284       54.8314398119      205.3827110505
C                52.7110282141       55.7185107728      206.2308830078
O                52.3455873363       56.2316076823      207.2936436802
C                52.3471381893       53.4324067492      205.4207480040
C                51.3582337756       52.3932448112      204.9537506663
C                52.0429788038       51.0488552546      205.0472224178
C                50.1149171491       52.3044508014      205.8022769915
H                51.9838761591       54.6606039903      203.2891000297
H                50.8042666890       54.8802641419      205.8784608342
H                53.2430612784       53.4018211212      204.7984547793
H                52.6344427189       53.2227324854      206.4550989671
H                51.0782947673       52.6057483862      203.9171946412
H                51.3750077156       50.2516597544      204.7311310769
H                52.9268054644       51.0171021415      204.4127786229
H                52.3439026484       50.8550209513      206.0702375903
H                49.4230226845       51.5912646463      205.3631666377
H                50.3655781994       51.9620043324      206.8060799563
H                49.5924098429       53.2508517220      205.9088691414
O                56.3601069132       54.2546052271      193.7407668483
H                56.4352547355       55.2105431137      193.6867297358
H                56.0935554428       53.9700673333      192.8440918702
O                54.5575683390       48.5715782992      191.7637055393
H                55.3603556576       48.0751625695      191.5713458306
H                54.3246653398       48.3681498269      192.6762314033
O                46.5304290976       48.5715782992      194.5820395474
H                45.7276417789       48.0751625695      194.7743992561
H                46.7633320967       48.3681498269      193.6695136834
N                45.1252805860       63.2528108057      188.5436865604
C                46.3948848079       62.7596668972      189.0262614403
C                46.4985887782       62.9005241823      190.5750159133
O                46.7450761792       61.9649394904      191.3507797710
C                47.5441510200       63.5000537835      188.3444875004
O                47.4386565431       63.4880318904      186.9511664588
C                48.7987735739       62.7304817049      188.6797672330
H                45.1107391093       63.9786797726      187.8384823084
H                46.4667191408       61.6868022250      188.7952110059
H                47.5852149189       64.5320065837      188.7196538876
H                46.7682837940       64.1259990964      186.6520968191
H                49.6651922571       63.2577637494      188.2970955733
H                48.9110772003       62.5986157179      189.7514896165
H                48.7484345362       61.7530330892      188.2057156027
N                46.4687449032       59.8983987063      193.1111359267
C                47.6332407800       59.8438517855      193.9812536351
C                47.2561763870       59.6946557253      195.4411194962
O                47.6704544019       58.7203940642      196.1263330805
C                48.4982073814       61.0947361092      193.8526411571
O                49.1726575570       61.0956164009      192.6282918537
H                46.2985126127       60.7643371265      192.6157759505
H                48.2601882637       58.9740992505      193.7205342223
H                47.8763841184       61.9922942712      193.9628404980
H                49.2663813008       61.0806712378      194.6338508711
H                48.4761574135       61.2330406069      191.9568442792
N                46.1508523439       56.1874029734      196.1504370636
C                47.3160037627       55.3583219207      196.4107749702
C                47.9910906656       55.5184325329      197.8042646867
O                48.4890414061       54.5427540717      198.3820463862
C                48.3587789790       55.5663827456      195.3132748425
H                46.2659480789       56.9295817610      195.4758595864
H                46.9854868747       54.3117588113      196.3957092641
H                49.2410016508       54.9499381433      195.4880893139
H                47.9437364251       55.3351381175      194.3366296111
H                48.6932239341       56.6038568135      195.3053084490
N                48.0093988978       56.7291836645      198.3532535157
C                48.6377317826       56.8975149135      199.6312043075
C                47.7269468855       56.4925179698      200.7688413481
O                48.0595302553       55.5620111063      201.4971677293
C                49.0712300711       58.3130476118      199.8085936937
C                50.2471461253       58.4935646264      198.8857881595
S                51.0969895834       59.9487065103      199.4033158444
C                49.6736229115       61.0573814214      199.0547108174
H                47.6927197407       57.5362413241      197.8293839188
H                49.5065448260       56.2203356364      199.6828755433
H                48.2489868467       58.9725718792      199.5378525598
H                49.3831067151       58.5030916894      200.8378223962
H                50.9555576945       57.6589121848      198.9595226210
H                49.9608548014       58.5773925945      197.8297674456
H                50.0677571639       62.0631056440      199.1004518517
H                49.3337256011       60.8273121832      198.0463015999
H                48.9034386966       60.9061318723      199.7973420448
N                45.9367530482       53.0700456465      199.9262969675
C                46.9525850375       52.1332371840      199.5242801412
C                46.5261398891       51.2726829305      198.3620113102
O                47.0786914436       50.2123659604      198.1050826647
H                46.2350907061       54.0233941161      200.0442555131
H                47.8381863785       52.6947566035      199.2162981538
H                47.2429250502       51.4921999522      200.3654996098
N                45.4891456160       51.7820650738      197.6676186733
C                45.0933708982       51.2944999663      196.3469689929
C                45.6520843036       52.1860828337      195.2327069837
O                45.4316670487       53.3960408102      195.1374939590
C                43.5656269316       51.1888447943      196.2812727629
C                43.1281702465       49.9446259316      197.0666046377
C                41.7793805235       50.1618220494      197.7443884327
C                41.3685000743       48.9257137740      198.5215554595
N                41.3448955567       47.7081739082      197.6527162575
H                45.2326774440       52.7370227725      197.8856186741
H                45.5532121035       50.3049950414      196.2625210721
H                43.1497383346       52.1000623312      196.7112013333
H                43.2506150667       51.1474347493      195.2386110381
H                43.0923684959       49.1260817201      196.3515473247
H                43.8774423393       49.7470473758      197.8338750674
H                41.8819955747       50.9920993793      198.4430435926
H                41.0295402801       50.4418207040      197.0061924899
H                42.0852580798       48.7732800895      199.3307001824
H                40.3799801243       49.0784468419      198.9538828627
H                40.9917763666       46.9120001716      198.2022045965
H                40.7311670968       47.8719764792      196.8412290058
H                42.2994326817       47.4952032333      197.3321233218
N                46.3797835067       51.4851713098      194.3296513702
C                47.2414210695       52.1654219723      193.4060185478
C                46.9802023183       51.7551053521      191.9638358059
O                47.6171497009       52.2585255977      191.0323429643
C                48.7319912004       51.9723803523      193.7497971399
O                49.1307643905       50.6594548856      193.4598577787
H                46.5774047440       50.4895302309      194.5079124704
H                47.0583712631       53.2451561783      193.4814087987
H                49.3133810077       52.7121061193      193.1748529034
H                48.8821425564       52.2154940613      194.8110172801
H                49.9834655647       50.5229829200      193.9008769595
N                45.4680802254       54.6735828902      189.7493291504
C                46.6486992410       55.4330559182      189.4281720003
C                47.5186528365       54.8086553646      188.3390224179
O                47.9387429622       55.5870238993      187.4615646116
C                47.4534336136       55.6596687871      190.6977193577
C                48.5623407762       56.6930415092      190.5764571911
C                48.0673924052       58.1012042245      190.3090526949
C                49.2981554032       56.7029644899      191.9015849919
H                45.3322597876       54.3746115400      190.7110584833
H                46.3511541759       56.4035767931      189.0029360451
H                46.7817908120       55.9938197071      191.4960012883
H                47.8972988601       54.7064698154      191.0027374320
H                49.2700161368       56.4014650183      189.7825966344
H                48.9195802756       58.7819463880      190.2994460332
H                47.5673045189       58.1791239631      189.3463887354
H                47.3995441684       58.4187641308      191.1061699712
H                50.1271650376       57.4139498735      191.9055823550
H                48.6212128093       56.9731641489      192.7109516179
H                49.7333311550       55.7273631233      192.1275832329
N                47.7898704351       53.4874826717      188.3315784407
C                48.7576760027       52.9398536133      187.3693732593
C                48.1879925975       53.0649180966      185.9054272517
O                48.8915017400       53.4212486636      184.9510705245
C                49.0943923015       51.4890166836      187.7367078765
C                50.1465081893       51.3758728457      188.8574500853
C                50.1117454605       50.0204630563      189.6137715202
C                51.5298034269       49.4634696087      189.7795632021
N                51.6122875894       48.2391001631      190.6354695413
H                47.6324659054       52.9397368083      189.1725218518
H                49.6767639793       53.5566664332      187.3735310515
H                48.1535845103       51.0184508362      188.0300375605
H                49.4787340466       50.9982326727      186.8399813612
H                51.1349236925       51.5573441137      188.4218989245
H                49.9965413489       52.2020465889      189.5619755529
H                49.6308001275       50.1923145560      190.5781322005
H                49.5098547081       49.3256075323      189.0264749858
H                51.9495584923       49.2435672289      188.7976398625
H                52.1738591405       50.2335596160      190.2060607303
H                52.6244445576       48.0405620657      190.7671465262
H                51.2083510944       48.4242435093      191.5644451807
H                51.1345523327       47.4427837786      190.1812894771
N                45.7288922170       55.1249025270      184.9812389080
C                45.6536239351       56.5036761285      184.5674570262
C                46.9674489569       57.0055050051      184.0188551517
O                46.9834696407       57.8559683608      183.1384644937
C                45.3203571798       57.4380158057      185.7172270772
C                45.5733613162       58.8759193203      185.3969795061
C                46.3097795593       59.7399502892      186.1645281341
C                44.9181687783       59.6770158737      184.4166906116
N                46.0961183446       61.0347332453      185.7837777991
C                45.2847745298       61.0216319770      184.6840365358
C                43.9932548424       59.4139586764      183.4134442355
C                44.8309353198       62.0804262574      183.9046455881
C                43.5222322301       60.4725310846      182.6664000944
C                43.9672803999       61.7859232996      182.8748571920
H                45.6526838102       54.8840009297      185.9599115584
H                44.9076042530       56.5868749004      183.7689221761
H                44.2702251013       57.3099796871      185.9959698449
H                45.9393413636       57.1543242993      186.5735108894
H                46.9593317808       59.5118845566      186.9889410771
H                46.6217677284       61.8302375814      186.1208960071
H                43.6469796776       58.4064152719      183.2352696202
H                45.1411564019       63.0895335387      184.1307078493
H                42.8034994010       60.2965274140      181.8808905757
H                43.5953272478       62.5683819524      182.2303084978
N                48.0610488631       56.4815605157      184.5925139595
C                49.3688384775       56.9165298080      184.1588287158
C                49.6324655259       56.5885553968      182.6729771772
O                50.0087646386       57.4671747655      181.8927044080
H                47.9944923026       55.9693375050      185.4617080282
H                49.4801689859       58.0024212151      184.2678933884
H                50.1289799161       56.4157704676      184.7642831404
H                66.2403812423       53.7100363802      196.8816978629
H                64.6889006780       56.8295684188      196.9682260555
H                67.6915722687       58.1117597743      193.0176362698
H                67.7155746763       61.3959415890      193.7013651095
H                56.4277775306       62.5757818141      198.1699583881
H                53.6467990336       55.8960599962      205.9262369070
H                47.5273890894       57.1978675630      184.7025660377
H                49.4984083916       55.6569373584      182.3351658168
