 447 
 
N               -19.5061223264       71.6023258263       16.5052568877
C               -20.2698878155       72.0899610238       17.6293981601
C               -21.6425596563       72.6203020185       17.2350752109
O               -22.3888261359       73.1523686287       18.0879854924
C               -19.4492080768       73.1916682113       18.3541785792
C               -19.9508904526       73.5945529900       19.7535815128
C               -19.2172609279       74.8751745762       20.3120562541
O               -18.5324975875       75.5354121518       19.5261375709
O               -19.4004401250       75.1222274303       21.5181550199
H               -18.7020410968       72.1808602271       16.2769015130
H               -20.4669488726       71.2672908127       18.3344733795
H               -18.4336699495       72.8285777717       18.4481896216
H               -19.4451294121       74.0703774813       17.7220169071
H               -21.0285690569       73.8107258178       19.7141527677
H               -19.8097574412       72.7649624925       20.4569207671
N               -22.0412341332       72.3326592836       15.9945135563
C               -23.3939550653       72.6445052698       15.5718944536
C               -24.0235816922       71.5545683218       14.7246417298
O               -25.2499272612       71.3710850434       14.7805327430
C               -23.4373770286       74.0285898481       14.8910812937
C               -24.7530118990       74.1763559444       14.1328097048
C               -23.2873964652       75.0837159891       15.9797375132
H               -21.3584001063       72.2349736513       15.2622777933
H               -23.9966063550       72.6999417124       16.4683206689
H               -22.5803897398       74.0797682916       14.2086354889
H               -24.8342377717       75.1683899810       13.7610555385
H               -24.7570865715       73.4721195094       13.2864968910
H               -25.5751211438       73.9257923113       14.7772888797
H               -23.3633633453       76.0540637658       15.5633327825
H               -24.0324054828       74.9385407849       16.7583566865
H               -22.2921349098       74.9906930558       16.4619284336
N               -23.2189714548       70.7663424687       13.9720263637
C               -23.7556015624       69.4522685463       13.7072698400
C               -23.8869318614       68.6940407918       15.0386515108
O               -24.5153806956       67.6501505845       15.0827379127
C               -23.0461626519       68.6626746927       12.5956014263
C               -24.0758116244       68.0444159069       11.6436199635
C               -23.5429913454       67.3421472593       10.3277888816
O               -22.6820463091       66.4434821265       10.4645782609
O               -24.0638201412       67.7068962849        9.2635690316
H               -22.2270594156       70.9469397966       13.8761515774
H               -24.7859715283       69.6066786342       13.3855318819
H               -22.3823852887       69.3413529306       12.0503482908
H               -22.4016599513       67.8792987866       13.0321457831
H               -24.6431303686       67.2958923162       12.1916957730
H               -24.7490132999       68.8307635318       11.3101944304
N               -23.4034334826       69.3082099408       16.1378381007
C               -23.6219162706       68.7204266340       17.4350691130
C               -25.0496133900       69.0458051074       17.8363616983
O               -25.8828767941       68.1797121170       18.1227137121
C               -22.7038763515       69.2457888331       18.5470386624
C               -21.6019575521       68.2448775433       18.8980870086
C               -22.1736314842       66.9629160132       19.5951268516
O               -21.7962003112       66.7818280498       20.7756617750
O               -22.9273177071       66.2419372306       18.9512727135
H               -22.5624043991       69.8906698668       16.0248434534
H               -23.5248050014       67.6275029989       17.3767788847
H               -22.2823372574       70.2117145055       18.2334633296
H               -23.2971406777       69.4329366764       19.4534262092
H               -21.0824340158       67.9606688027       17.9758450422
H               -20.8813115926       68.7056986322       19.5869593500
N               -25.3198478615       70.3507700387       17.8753780515
C               -26.5975360645       70.7769737062       18.3936362638
C               -27.6797653490       70.1094728280       17.5585556775
O               -28.5533683321       69.4260988773       18.0436959689
C               -26.7691845489       72.2967584607       18.3944867970
C               -27.4844323658       72.6864530089       19.6993007707
C               -27.3416577739       74.1844446165       19.9915583507
N               -27.6602954673       74.4710431988       21.3737034409
C               -28.7227753241       75.0804014898       21.8552556491
N               -29.7539941173       75.3929756004       21.0758631904
N               -28.7833952693       75.3386322925       23.1692110627
H               -24.5699258427       71.0208255759       17.7703781773
H               -26.6994139556       70.3789036368       19.4139567857
H               -25.7927402020       72.7725174934       18.3545268658
H               -27.3436413012       72.6095406648       17.5225710478
H               -28.5207408836       72.3847014660       19.6519960242
H               -27.0058462563       72.1415071983       20.5115004761
H               -26.2990652157       74.4673297243       19.8340158973
H               -27.9567362998       74.7709230785       19.3176475528
H               -26.9415168458       74.1922917284       22.0364020974
H               -29.7696100017       75.1572060938       20.1097459586
H               -30.5212303377       75.9739830052       21.4199167406
H               -27.9830138168       75.2384468694       23.7589876622
H               -29.5332631170       75.9391784139       23.5221931561
N               -27.6253775203       70.3089444916       16.2462316509
C               -28.7503577642       69.8513886012       15.4866342305
C               -28.7781758573       68.3435776287       15.2169360480
O               -29.6559717609       67.8558262028       14.5135776152
C               -28.8943463611       70.7414312707       14.2376385768
O               -28.5983458325       72.0437905627       14.7160308701
C               -30.2887558233       70.6527612356       13.6345705061
H               -26.8993825170       70.8766366676       15.7820817719
H               -29.6357489441       70.0330001366       16.1068018496
H               -28.1407187354       70.4311511267       13.4975466887
H               -28.7532935764       72.6756207779       14.0322698921
H               -30.3050064577       71.1240532076       12.6610016058
H               -30.5720311795       69.6055485066       13.5203315610
H               -31.0086368382       71.1434492798       14.2821126521
N               -27.8781208106       67.6188210492       15.8758997377
C               -27.8596745819       66.1738183313       15.9674227125
C               -28.5898127021       65.6416408498       17.2019325172
O               -28.8709755545       64.4640688323       17.2904278836
C               -26.3986303650       65.6855101182       15.9947944167
C               -26.1953185604       64.1627622977       15.9407226171
C               -26.3270499966       63.5811136551       14.5178558914
N               -25.4083186956       62.4804524847       14.2570143362
C               -24.2172062963       62.5717571100       13.6573343030
N               -23.6432152473       63.7378537704       13.4413045421
N               -23.5745843734       61.4501465211       13.3248284389
H               -27.1353424659       68.0743743616       16.4001909271
H               -28.3685233616       65.7738267086       15.0782065659
H               -25.8704970248       66.1466695581       15.1618785308
H               -25.9312294399       66.0933255196       16.8981660994
H               -25.1743444668       63.9619188284       16.2956766909
H               -26.9174917860       63.6806662942       16.6013253333
H               -27.3405595571       63.2116815504       14.3654293151
H               -26.1590051154       64.3770130152       13.7882165440
H               -25.7490243775       61.5625737416       14.4976918975
H               -24.0724574110       64.6076281257       13.7338231401
H               -22.8387537932       63.8382634362       12.8345718025
H               -24.0343782667       60.5526738866       13.3384495631
H               -22.7133246112       61.5180595119       12.8051855838
N               -28.8614095302       66.5102064271       18.1576085999
C               -29.7655949174       66.1057394857       19.2244032709
C               -31.2027995049       66.3844867136       18.7638524792
O               -32.1206186316       65.6256369632       19.0466772641
C               -29.3696034462       66.6036448973       20.6141595496
C               -27.8914712222       66.2869741257       20.9841949883
C               -27.3722662063       64.8761019356       20.6523407245
C               -26.0566240047       64.9900684107       19.9006955703
N               -25.5206649203       63.6797585570       19.4393862217
H               -28.5530549439       67.4819146801       18.1341123023
H               -29.7288499571       65.0177340411       19.2574990153
H               -29.4831211402       67.6930352646       20.6881736124
H               -30.0401162783       66.1588634066       21.3479394733
H               -27.2570885102       67.0138807929       20.4924536573
H               -27.7922629892       66.4710538857       22.0713751398
H               -27.2283424685       64.3098630680       21.5802727037
H               -28.0868515957       64.3322161026       20.0417315453
H               -26.1830083557       65.6319223930       19.0290414082
H               -25.2933444772       65.4590204104       20.5252424417
H               -24.5793281066       63.8586480076       19.0096770432
H               -25.3928685910       63.0332449107       20.2291880638
H               -26.1387794282       63.2441346428       18.7340601884
N               -31.3881416782       67.3513370410       17.8459897506
C               -32.7036912466       67.4442040045       17.2581096468
C               -33.0629220726       66.2547599787       16.3881482583
O               -34.1840553698       66.1862032570       15.8850792871
C               -32.8509062663       68.7229546825       16.4377873448
C               -33.0981934586       69.9275823575       17.3480180308
C               -32.1910760705       69.9662358567       18.5655292961
C               -32.9391730365       71.1844028274       16.5232054302
H               -30.6887117435       68.0476386617       17.6336578132
H               -33.4544071709       67.4407626141       18.0612124211
H               -31.9677394226       68.8540203378       15.8363855066
H               -33.7150026964       68.5895626721       15.7653980967
H               -34.1304898400       69.8824598972       17.7227375941
H               -32.3975357365       70.8562742905       19.1343671201
H               -32.3608643956       69.1139598158       19.2563510078
H               -31.1291935736       69.9767768469       18.3093097652
H               -33.3195018183       72.0394758275       17.0697278540
H               -31.9007412183       71.3562229114       16.2850255288
H               -33.5133129189       71.1088867735       15.5891632212
N               -32.1114732116       65.3423814331       16.2202505832
C               -32.4113417712       63.9858496532       15.8544621842
C               -32.6391608376       63.0951342399       17.0895209178
O               -33.7021087178       62.5174355922       17.1897384762
C               -31.3128556603       63.4100094469       14.9568239914
C               -31.6623577533       61.9826686010       14.5259879795
C               -32.8859318898       61.9538455331       13.6227221501
O               -34.0310130281       61.8162942258       14.0395045178
N               -32.6257174770       62.1540438395       12.3226109413
H               -31.1968526452       65.5078535111       16.5918895564
H               -33.3670872132       63.9909506169       15.3137804191
H               -31.1982158595       64.0474128638       14.0827258111
H               -30.3701789314       63.4043799341       15.5108324637
H               -30.8174964529       61.5287048909       14.0119188905
H               -31.8939619020       61.3734835957       15.4126923011
H               -31.6906743264       62.1336089048       11.9671623043
H               -33.3893019830       62.0807554774       11.6567231161
N               -31.6794109030       62.9829804350       18.0165870455
C               -31.8437657202       62.0721641604       19.1558235752
C               -33.1281192477       62.4018870629       19.9772980529
O               -33.5412919193       61.6191684170       20.8182959435
C               -30.5015822233       61.7933157794       19.9285152233
C               -30.2798747981       62.4678374269       21.2859593148
C               -29.2081359097       61.8460163543       22.1896260042
O               -28.9370760885       60.6590760862       22.2400590032
N               -28.5281093641       62.7312601049       22.9574496644
H               -30.7545633518       63.4100311065       17.8720880746
H               -32.1231211925       61.0928131373       18.7160746255
H               -30.4366715098       60.7153282953       20.1021688952
H               -29.6768544873       62.0523629883       19.2377736487
H               -30.0530468779       63.5304868999       21.1700431640
H               -31.1975913357       62.3701869627       21.8543036863
H               -28.8419254058       63.6690212423       23.1625486662
H               -27.9142055473       62.3415120215       23.6693835014
N               -33.7854256473       63.4973011785       19.5999280918
C               -35.0082431266       63.9562876455       20.2368887459
C               -36.2190003615       63.7445906334       19.3369498345
O               -37.1968279312       63.1565227599       19.8202552557
C               -34.7996880563       65.3961183553       20.7375192750
C               -33.9036065874       65.3886437861       21.9535554789
C               -34.3961924463       65.8688953466       23.1632522666
C               -32.6096716727       64.8708866072       21.9679916367
C               -33.6417167496       65.8519803345       24.3116091495
C               -31.8180643151       64.9015672227       23.1097023623
C               -32.2966673534       65.4397716017       24.2926770197
O               -31.5338318464       65.6082054337       25.4179197537
H               -33.2751421512       64.2099237338       19.1066341171
H               -35.1987566364       63.3092380226       21.0925726373
H               -34.3717131972       65.9812949517       19.9188327067
H               -35.7754003840       65.8232347365       20.9921264158
H               -35.3807370053       66.2561217819       23.2296357883
H               -32.1673093243       64.4561664076       21.0777586404
H               -34.0602686531       66.1329447433       25.2716408980
H               -30.7889101052       64.5322918951       23.1080590429
H               -30.5904187355       65.4827669754       25.1916217831
N               -36.2282308988       64.1128688353       18.0483928692
C               -37.2920572662       63.5557454893       17.2125151588
C               -37.3988957008       62.0299541292       17.4349733023
O               -38.5019492560       61.5462936648       17.7142703990
C               -37.0850524704       64.0066109821       15.7518953506
C               -38.3730536812       64.0654486053       14.8842619711
C               -38.0401198819       64.2553698761       13.3881911786
N               -39.2184467908       64.5393713011       12.5493501608
C               -39.3210197932       64.5594294801       11.2143132185
N               -38.3260321650       64.1623288456       10.4329662934
N               -40.4381549200       65.0164514761       10.6327073203
H               -35.4565367128       64.5476189865       17.5993226868
H               -38.2668591101       63.9187305083       17.5823034780
H               -36.6521495297       65.0042422938       15.7971193884
H               -36.3703881863       63.3375926255       15.2923317451
H               -38.9383324565       63.1438620981       15.0274099478
H               -38.9957134143       64.8946223900       15.2335829849
H               -37.3351880230       65.0860318745       13.2938749487
H               -37.5531038595       63.3349149288       13.0344087231
H               -40.0222289659       64.8642090058       13.0602260570
H               -37.4528909927       63.8480906024       10.8206097694
H               -38.4124023302       64.1780749169        9.4176859018
H               -41.2660096091       65.2301267067       11.1631365079
H               -40.5620792036       64.9201272755        9.6251505786
N               -36.2746262306       61.3097124598       17.3490132072
C               -36.1787087047       59.8451521963       17.4731359413
C               -36.2124437604       59.3677419420       18.9467278007
O               -35.6415397810       58.3576548211       19.3493042719
C               -34.9570688363       59.2119061372       16.7740479750
C               -35.2052092912       58.6293527090       15.3764271256
C               -34.7326521916       57.1229297227       15.1622767506
O               -34.3847462254       56.8204310783       13.9955696885
O               -34.7814563705       56.3430202998       16.1340441977
H               -35.3982011748       61.7568553267       17.1388454276
H               -37.0969505597       59.4054782384       17.0548747719
H               -34.1581692307       59.9398638701       16.7391906635
H               -34.6339336598       58.3700493090       17.4056478275
H               -36.2727911450       58.5942312834       15.1572884971
H               -34.7376587454       59.2360421632       14.5963455982
N               -37.0460541230       60.1121552821       19.7022290467
C               -37.5712824058       59.6344549341       20.9554244714
C               -38.8882580981       60.2980480440       21.3337199146
O               -39.7049169073       59.6492642102       22.0103597128
C               -36.5184583399       59.6344215328       22.0638898703
C               -37.0633302454       59.2323129905       23.4198645397
S               -37.9958609115       57.6455240879       23.5769057483
C               -37.5844743139       57.2653561425       25.2913946957
H               -37.4368301451       60.9357043141       19.3157974803
H               -37.8393184372       58.5683452009       20.8038252500
H               -35.7208523171       58.9498191860       21.7295675756
H               -36.0887343993       60.6289042149       22.1339164908
H               -36.2348105746       59.1336608417       24.1040403450
H               -37.7477113973       59.9997725580       23.7546533465
H               -38.2171497621       56.4238463430       25.5816614422
H               -36.5339876490       56.9970011802       25.3655941938
H               -37.8022829769       58.1299344377       25.9074722759
N               -39.2284408867       61.4951489432       20.8393703296
C               -40.6592031464       61.7810453498       20.9383501095
C               -41.3873354562       60.5780066562       20.4047884892
O               -42.1907329454       59.8808401149       21.0035981993
C               -41.0967972764       62.9327501996       20.0571036293
C               -40.8468364997       64.2997970060       20.6880325767
C               -41.7121024972       65.3084770581       19.9824522535
C               -41.1948240740       64.3178073329       22.1706262954
H               -38.5902491531       62.1341237559       20.4119831977
H               -40.9325759132       61.9096779639       21.9785651071
H               -40.5886613655       62.8727405894       19.0865844833
H               -42.1781104555       62.8009044474       19.8676980139
H               -39.8071268296       64.5382713530       20.5730286360
H               -41.4689624001       66.2926113249       20.3007141192
H               -41.6167312343       65.2396557840       18.8893498405
H               -42.7660379883       65.1094321575       20.2351148231
H               -41.2109957415       65.3252520063       22.5202688318
H               -42.1897254962       63.8798875341       22.3366008984
H               -40.4760820096       63.7561371779       22.7560300678
N               -33.0529146403       65.1442669246       30.4973073143
C               -32.0469100407       64.9994011990       29.4344132650
C               -31.9156813543       66.2945718515       28.5976123195
O               -30.8089516373       66.5664073645       28.1128788121
C               -32.1789563327       63.6994275258       28.6027386093
C               -31.1352449081       63.4619592975       27.4943788629
S               -29.6355155534       62.3777721938       27.7472738557
C               -29.0764572084       62.1135642883       26.0275449694
H               -33.8103386126       64.4568892648       30.5929980184
H               -31.0662340389       64.9392116601       29.9371954112
H               -32.1736798103       62.8668453898       29.3092420335
H               -33.1641055248       63.7218577664       28.1149582856
H               -31.6273893272       62.9606128749       26.6670182206
H               -30.7399312607       64.4190313584       27.1430980947
H               -28.0090827800       61.8645654741       26.0734779096
H               -29.6368468497       61.2987246815       25.5799362600
H               -29.1966203122       63.0406868175       25.4811194450
N               -32.9678002851       67.1065270505       28.4517321721
C               -32.7856523683       68.4604695497       27.9441303824
C               -31.8259550400       69.3421670029       28.7308635395
O               -30.8521904322       69.8463874424       28.1863103194
C               -34.0458053435       69.3386599498       27.9694168799
C               -35.0376191765       69.1761534855       26.8133279399
C               -35.7723935558       70.4848176861       26.5857629430
C               -34.3261907496       68.7388562729       25.5413132368
H               -33.8183415907       66.9094127698       28.9406795351
H               -32.3286660491       68.4017316767       26.9458912103
H               -34.5362146146       69.1878730179       28.9265355750
H               -33.6690824306       70.3784846954       27.9633503917
H               -35.7456667743       68.4196089416       27.0963661895
H               -36.4831943885       70.3826199061       25.7876398596
H               -36.2840039082       70.8081958544       27.4911049712
H               -35.0757269983       71.3023390929       26.3067101928
H               -35.0204894972       68.5704124721       24.7579745622
H               -33.5924573435       69.4801867020       25.2365713904
H               -33.7689975074       67.8134463671       25.7396209587
N               -28.2536308414       67.6573591212       28.5374421249
C               -27.6472102687       67.9068845918       27.2509234600
C               -27.5372556490       69.4356986546       27.0021977452
O               -27.2068476145       69.8848053640       25.9075818008
C               -28.4168080632       67.2523021657       26.0962063665
C               -28.2625458866       65.7184062341       25.7935499074
O               -27.5300658394       65.0197355669       26.4861239794
O               -28.9345755432       65.3132680210       24.8049127650
H               -29.2275193850       67.3760599985       28.5166688579
H               -26.6105382846       67.5223299115       27.2653230253
H               -29.4810455106       67.4267377375       26.2439174633
H               -28.1126629175       67.7610771318       25.1655134767
N               -29.3276177616       72.3777578077       26.5913445961
C               -30.5942408180       72.8254641752       26.0167348469
C               -31.6844556475       73.2709236017       27.0178554522
O               -32.1002401058       72.5928797201       27.9330563509
C               -31.1720546180       71.6480409532       25.2028420232
C               -30.2364542796       71.2670537686       24.0241866631
C               -32.5850778009       71.9907835463       24.7650424917
C               -29.8367224687       69.7989015423       24.1184931309
H               -28.8532453340       71.6910901506       26.0072818201
H               -30.3656242415       73.6700839693       25.3426329220
H               -31.2173231449       70.8155109474       25.9004080358
H               -30.7542240909       71.4290568970       23.0868349562
H               -29.3345269737       71.8818902125       24.0281095942
H               -32.9660239880       71.2491747685       24.0860194792
H               -33.2312202605       72.0390085553       25.6262779144
H               -32.6188023148       72.9733669214       24.2915775104
H               -29.0970685652       69.5405984095       23.3601483264
H               -29.4104284099       69.5894268421       25.0910510172
H               -30.6988397997       69.1547056143       23.9936959566
N               -32.2088399296       74.4737522418       26.6889598268
C               -33.3532953334       75.1345645206       27.3015630265
C               -34.7105174389       74.6690396018       26.7506216186
O               -34.8222176980       74.0835615123       25.6848252600
C               -33.2492337841       76.6483996406       27.0097994962
C               -34.4631663863       77.5757868908       27.4243115367
O               -34.3842359075       78.1565742719       28.5211720349
O               -35.3791683551       77.6951438592       26.5865553085
H               -31.8652310131       74.9313977014       25.8467593688
H               -33.3114419448       74.9344146655       28.3696281150
H               -32.3565737319       77.0512558212       27.4970881705
H               -33.1555720661       76.7870027326       25.9250224990
N               -37.3309864978       78.1944353582       23.0005657588
C               -36.8854294800       78.1092843564       21.6208549881
C               -36.7279007922       76.6715810636       21.1361129738
O               -37.1354803982       76.3020581951       20.0367947777
C               -35.5242495964       78.8086979182       21.4915099875
C               -35.0536674210       79.0559130011       20.0627831594
C               -33.5216498641       79.4435434940       20.0336652832
O               -32.7416332502       78.6338289690       20.5371568917
O               -33.2302184284       80.5337152587       19.4916455477
H               -36.7407932849       78.6771953512       23.6627835610
H               -37.6272747125       78.6064805625       20.9794216283
H               -35.5655238029       79.7675056122       22.0179000019
H               -34.7679870019       78.1958442769       21.9935350429
H               -35.1650058679       78.1459021011       19.4720900264
H               -35.6188779034       79.8628803989       19.5929233435
N               -35.9912486272       75.8770511748       21.8997060396
C               -35.5719816163       74.5879186341       21.3724092908
C               -36.8007672229       73.7901943202       21.0369683548
O               -36.9216344441       73.0307071202       20.0824034978
C               -34.6446707942       73.9062518166       22.3588850862
C               -33.2332293963       74.5197394876       22.2409204740
C               -32.8690920423       75.3352471485       23.4984425005
C               -32.2113738694       73.4442975048       21.8648396563
H               -35.8166400457       76.0726782483       22.8864751767
H               -35.0470455823       74.7669370037       20.4401536427
H               -35.0435787100       74.0232087054       23.3866532245
H               -34.6152144900       72.8479805902       22.1452413958
H               -33.2413947642       75.2435527697       21.4317251746
H               -31.7952048798       75.3293088041       23.6808279775
H               -33.1765856383       76.3722564801       23.3767275222
H               -33.3852731894       74.9489985528       24.3747777169
H               -31.2131138290       73.6883520801       22.2412714354
H               -32.4948476849       72.4811329083       22.2796938327
H               -32.1756224119       73.3438597318       20.8017825310
N               -38.0461802982       74.5890934628       17.7930145139
C               -37.2205844240       74.1135958203       16.7024546430
C               -37.6373828682       72.7325366966       16.1955752822
O               -37.5162433653       72.4245371993       15.0222603806
C               -35.7481666772       74.0095786150       17.1449070446
O               -35.4618251223       72.8347131719       17.8437387533
H               -37.5911031578       74.9605983052       18.6134447358
H               -37.3009744894       74.8079958209       15.8515451419
H               -35.1234531870       73.9962642113       16.2457958496
H               -35.5054549902       74.9046066340       17.7300748865
H               -35.9683599338       72.8330205579       18.6799846733
N               -38.0636607876       71.8833693438       17.1410629445
C               -38.6314807930       70.6194440650       16.7521445538
C               -40.1566310008       70.7141129122       16.5275901672
O               -40.8257088334       69.6986054445       16.4505751866
C               -38.2646584164       69.4872224089       17.7149515269
C               -37.2345058179       68.5301303584       17.1269834861
S               -37.0493044552       67.0039855479       18.1035510473
C               -38.7827799112       66.4392808231       18.1178941084
H               -38.2777887206       72.2231557488       18.0655060944
H               -38.2320513995       70.4105841408       15.7428019616
H               -37.9005201035       69.9203718002       18.6371694557
H               -39.1935362844       68.9537823881       17.9065521473
H               -37.5127972447       68.2452107074       16.1042658337
H               -36.2453707624       68.9836616011       17.1028252865
H               -38.7950443274       65.4797473514       18.6091303076
H               -39.3884159658       67.1319969881       18.6753968333
H               -39.1566413594       66.3620512550       17.0902211947
H               -19.1990173004       70.7759830612       16.6864864036
H               -41.2315746570       60.2757073671       19.4643876634
H               -32.6463200248       65.1278000092       31.3000586203
H               -31.9877619418       69.5145645385       29.7025103973
H               -27.8089874871       66.9962245836       28.9560032443
H               -27.7373850045       70.0782722685       27.7418242670
H               -28.7770686341       73.0827194203       26.6909678010
H               -35.5471754164       74.8427098447       27.2700848757
H               -38.1202297917       78.6255809220       23.0353296198
H               -37.6128795317       73.8553033182       21.6168255926
H               -38.5745176703       75.2565866599       17.5009315579
H               -40.5953196235       71.6089814921       16.4453556432
