 559 
 
N                 7.0165371529       27.4945163892       -8.0137116926
C                 6.2365531719       27.1174646133       -6.8379474364
C                 6.6691158925       25.7852120650       -6.2524275671
O                 6.4638572807       24.6959544259       -6.9599003748
C                 4.7422418495       27.1268489721       -7.1855225065
C                 3.8315832458       26.6787676321       -6.0538243230
C                 2.6610858084       25.8270891748       -6.5446461562
C                 1.6838950939       25.5658029094       -5.4027527781
N                 0.7229698020       24.4893162099       -5.6929701379
H                 7.5562340208       26.7195352262       -8.4693658226
H                 6.4287781091       27.8754682766       -6.0583501184
H                 4.4620288331       28.1444872141       -7.4851028579
H                 4.5900497335       26.4583688375       -8.0339601084
H                 4.4135533509       26.0990831698       -5.3339592646
H                 3.4429944470       27.5591599709       -5.5391642356
H                 2.1484927995       26.3652653706       -7.3469750307
H                 3.0575404253       24.8815897611       -6.9193128092
H                 2.2488442258       25.2857453848       -4.5192734955
H                 1.1170168880       26.4863133820       -5.2072738983
H                 0.0729727926       24.3619474380       -4.8973843547
H                 0.1462869049       24.7346210713       -6.5198208468
H                 1.2275829661       23.6031020167       -5.8678204690
N                 6.1277468797       22.7134696837       -3.8121941095
C                 5.0832711698       21.9721857269       -3.0946937492
C                 3.7305917288       22.1801210196       -3.7019427994
O                 3.5865529470       22.8930161950       -4.7634420928
H                 6.5103640355       22.1810356075       -4.6105884494
H                 5.3327354848       20.9099601323       -3.1036366483
H                 5.0909056073       22.3575848679       -2.0709319200
N                 2.7161993263       21.6048929282       -3.0789444168
C                 2.9505256527       20.5648575223       -2.0717076290
C                 3.0954999103       19.1442295999       -2.6679988350
O                 2.9432539213       19.0025927498       -3.9252336653
C                 1.6921598048       20.6635128179       -1.1945429870
C                 0.6301618094       21.1886056602       -2.1215422649
C                 1.2817321279       21.8327945262       -3.3050415393
H                 3.8336545620       20.7866578062       -1.4863800486
H                 1.4529722310       19.6763791237       -0.7898582372
H                 1.9018772708       21.3426864708       -0.3684205799
H                -0.0150117807       20.3493665109       -2.4383079590
H                 0.0005947457       21.9113598648       -1.5743078018
H                 0.9517415387       21.3750666953       -4.2389812321
H                 1.0971429173       22.9088481963       -3.3275624781
N                 3.3511682151       18.1623308915       -1.9007070759
C                 3.3872886155       16.7588228737       -2.3562170976
C                 2.0547338426       16.3616711829       -2.9657979381
O                 0.9651665119       16.7046988874       -2.3864094810
C                 3.7699425983       15.8082557253       -1.2349493472
C                 5.2615129732       15.8716988104       -0.9528731664
C                 5.5764526208       15.1570899829        0.3563374360
C                 6.0235788510       15.2621463718       -2.1315506332
H                 3.5031490621       18.2771411183       -0.8762945216
H                 4.1444172032       16.7167045875       -3.1495753922
H                 3.2088466490       16.0836218003       -0.3391936213
H                 3.4908043985       14.7990013178       -1.5213148334
H                 5.5750836247       16.9145342313       -0.8472307218
H                 6.6380797613       15.1976023751        0.5485024394
H                 5.0428476630       15.6413483896        1.1770804457
H                 5.2658396353       14.1150072569        0.3028509065
H                 7.0841070095       15.2937003492       -1.9320497072
H                 5.7201974097       14.2285555774       -2.2811573350
H                 5.8301386436       15.8313104748       -3.0389377085
N                 4.1532027677       16.9392282772       -5.5032363559
C                 5.0602047736       17.7502714817       -6.3325838149
C                 6.2487766896       18.3128042137       -5.5660053220
O                 6.2157621920       18.3085252576       -4.2872291237
C                 4.2875682760       18.8718020912       -7.0007996865
O                 5.0166096121       19.2738829645       -8.1284192582
H                 3.4522222333       17.4904967588       -4.9836389063
H                 5.4579604786       17.0591878248       -7.0860008404
H                 3.2973766184       18.4956512383       -7.2939640483
H                 4.1525534741       19.7039113634       -6.2937168289
H                 4.3828765712       19.6415276870       -8.8005067439
N                12.4511736831       23.8461998502       -1.3963047123
C                11.9373877145       25.0358104103       -0.6773930157
C                12.7945868820       26.2595625128       -0.9067754759
O                12.3588453912       27.3599727032       -0.5302001918
C                11.9121238351       24.7094966075        0.8140035386
C                10.9077002381       23.6543966259        1.1072751602
C                11.1440980549       22.3796216399        1.5276450125
C                 9.4870491850       23.7760266862        1.0465279985
N                 9.9878147206       21.7293237380        1.7208744802
C                 8.9359512021       22.5556559421        1.4348492701
C                 8.6421624553       24.8444738684        0.7082343865
C                 7.5674458282       22.3464376298        1.4863870344
C                 7.2787796941       24.6386356596        0.7949696548
C                 6.7698978096       23.3818536001        1.1807367732
H                11.9039509235       23.6653816410       -2.2805742863
H                10.9197152933       25.2673057227       -1.0016572082
H                12.9020377933       24.3756046013        1.1263728318
H                11.6948465030       25.6243147793        1.3737864617
H                12.1189488455       21.9513082822        1.7001287098
H                 9.8874331911       20.7462265562        2.0148594381
H                 9.0399648174       25.8021594935        0.4154159218
H                 7.1557982277       21.3846036364        1.7831134460
H                 6.6203283637       25.4416087009        0.5262284667
H                 5.6837383166       23.2591821616        1.2009347247
N                 1.0675234297       29.0583482681        1.5851124113
C                 0.3987126278       28.8589799809        2.8729276884
C                 1.0228943964       27.7334003634        3.6710098704
O                 1.4119436780       26.6802828896        3.0470387285
C                -1.0974941609       28.5807847134        2.6958349879
C                -1.3787272985       27.4188493794        1.7581289788
C                -2.4600756366       26.4966001009        2.2674535220
O                -2.0635822230       25.4149271029        2.8939603535
N                -3.6333244442       26.7589392822        2.0943803055
H                 1.3180157322       28.1838090961        1.0805367779
H                 0.5319524902       29.7969358387        3.4350445773
H                -1.5151859937       28.3573710258        3.6877207767
H                -1.5955325986       29.4901617200        2.3093769220
H                -1.7317779827       27.8094332718        0.7821340631
H                -0.4579928339       26.8509867646        1.5997714628
H                -3.9395733160       27.6625812311        1.6234709507
H                -4.4239744218       26.1943540955        2.4492345644
N                 1.0979778214       27.8758321302        4.9182471567
C                 1.5134404825       26.8256287256        5.8458580227
C                 0.3436170288       26.3003942859        6.6649199111
O                -0.2161286094       27.0160816195        7.5134993913
C                 2.6347145887       27.3128249780        6.7420400267
C                 2.7927030532       26.3847154310        7.9287396611
C                 3.9202872497       27.4151193171        5.9519798365
H                 0.7881914705       28.7402230421        5.4035598012
H                 1.8481590889       26.0062936991        5.2041512989
H                 2.3781405926       28.3041646841        7.1238278676
H                 3.5917233791       26.7347896209        8.5734404311
H                 1.8740089070       26.3528680599        8.5080234606
H                 3.0235999232       25.3800798830        7.5811194215
H                 4.7149594360       27.7574066460        6.5967165988
H                 4.1906148975       26.4347185225        5.5512362101
H                 3.7960499626       28.1176512769        5.1291544736
N                 0.0006681400       25.0710385020        6.4381531458
C                -1.0214029213       24.3872206517        7.2095361610
C                -0.3168239196       23.5466162972        8.2534328492
O                 0.3178208737       22.5238608107        7.9247189449
C                -1.8629648787       23.5325618290        6.3017661346
H                 0.4045108844       24.4954082888        5.6944099279
H                -1.6552240026       25.1362164721        7.6928076831
H                -2.6222256659       23.0349722554        6.8748150205
H                -2.3271974728       24.1480815624        5.5298180341
H                -1.2389756811       22.7909333592        5.8046875892
N                -0.3568678818       23.9781143323        9.5434099670
C                 0.3064378815       23.2522662510       10.6174320936
C                -0.1939797462       21.8183749529       10.7269660699
O                -1.4089979096       21.5882818084       10.3972203315
C                -0.0983246477       24.0594785060       11.8701329069
C                -0.4466946821       25.3767417995       11.3718755729
C                -1.0957331543       25.1407089166       10.0329117377
H                 1.3776413235       23.2642470418       10.4713072905
H                -0.9469468789       23.5718869192       12.3593171811
H                 0.7492850026       24.0863611665       12.5885417879
H                -1.1497167253       25.9119533278       12.0529234190
H                 0.4390330280       26.0315877041       11.2528059306
H                -2.1556277976       24.9180900873       10.1376855305
H                -0.9629796163       25.9979342334        9.3626503438
N                 0.5828924547       20.9329803747       11.1376875893
C                 0.1426209884       19.5429985082       11.3341467741
C                -0.5602180842       19.2858104623       12.6643907861
O                 0.0156646201       19.6205285514       13.7361273971
C                 1.2401123360       18.5367882799       11.1936514219
C                 0.8861269326       17.2425389996       11.8585124057
O                -0.3101640322       16.7382381064       11.6811109524
N                 1.7402073445       16.6907480702       12.5900147731
H                 1.5896242287       21.0928972004       11.4082689578
H                -0.6358361646       19.4039696335       10.5522617660
H                 1.4723263701       18.3743304751       10.1356436652
H                 2.1586240097       18.9253933901       11.6917023651
H                 1.6020779788       15.7764015237       13.0373814591
H                 2.6885960930       17.0966674497       12.7293087363
N                -1.6846647974       18.6926047257       12.6472512510
C                -2.5485394492       18.5860220733       13.8272987398
C                -1.8052901575       17.8310741457       14.9521696002
O                -1.7923982198       18.3688791881       16.1299476174
C                -3.8590013919       17.8883407825       13.4614277364
H                -2.0919119029       18.2678484422       11.7840096059
H                -2.7709777351       19.5965673407       14.1725399855
H                -4.4800092488       17.8098957620       14.3396465922
H                -4.3875841916       18.4724595237       12.7068577867
H                -3.6603594396       16.8897106473       13.0714248498
N                 7.0050555839       25.3285441657       17.7849847575
C                 6.4734236249       25.6079517619       16.4490368763
C                 6.9548424179       26.9652342424       15.9629872352
O                 6.6495771635       28.0058747592       16.6735971386
C                 4.9522995134       25.5091998259       16.4548882500
C                 4.3449945375       25.5938316023       15.0871214569
C                 3.8686772092       24.4516729379       14.4571701081
C                 4.1873272591       26.8378308415       14.4620848402
C                 3.2519916901       24.5360546174       13.2361561787
C                 3.5615151205       26.9344392951       13.2264659294
C                 3.0898064484       25.7881645589       12.6201250832
H                 6.3087205285       25.4972069880       18.5451351529
H                 6.8918104341       24.8537931504       15.7637777580
H                 4.6752438355       24.5425473538       16.9043410808
H                 4.5630877102       26.3287236394       17.0741379553
H                 3.9490349368       23.4871312155       14.9514480784
H                 4.5181605700       27.7324582789       14.9625890585
H                 2.8997271528       23.6516415068       12.7462023406
H                 3.4450051171       27.8934974426       12.7519582269
H                 2.6249850883       25.8476355859       11.6613524707
N                 7.7687286935       28.4879178151       11.7419436390
C                 8.2575402906       28.4289553240       10.3454037033
C                 8.8591636432       29.7628279559        9.8926944132
O                 8.2474925468       30.8325348849       10.2230702978
C                 7.1464768120       27.9768682747        9.4015301366
C                 7.6551029120       28.0314971726        7.9952791913
C                 6.7121390348       26.5673630517        9.7572484182
H                 6.9979739837       29.1519200507       11.8912978267
H                 9.0710761876       27.7079777346       10.3487969616
H                 6.2899593499       28.6527507888        9.5083996162
H                 6.8814933510       27.7014072584        7.3073890922
H                 7.9472823748       29.0512782716        7.7291604319
H                 8.5226570799       27.3855648007        7.8771741516
H                 5.9303559608       26.2502168614        9.0720159872
H                 7.5642069121       25.8971237794        9.6810966525
H                 6.3345366918       26.5394475399       10.7743946214
N                 6.3542801684       32.4097139926       11.2310580403
C                 5.0186770118       31.8783855471       11.4093659808
C                 4.9217112193       31.1882819785       12.7691114872
O                 5.5829277181       30.1147338929       12.9638955918
C                 4.6260309701       30.9853940387       10.2489065814
C                 4.5039089768       31.6929224222        8.8966941350
C                 4.1810529322       30.6781663779        7.8333055446
C                 3.4200789554       32.7512971302        8.9807917790
H                 7.1182883923       31.7271349169       11.2141784849
H                 4.3496966094       32.7484667411       11.4665273606
H                 5.3773312251       30.1988750484       10.1555683158
H                 3.6733490504       30.5262690454       10.4886034042
H                 5.4602784238       32.1744623334        8.6487267360
H                 4.0843576852       31.1671614860        6.8745042894
H                 4.9784467220       29.9333931088        7.7593510352
H                 3.2451766337       30.1635624514        8.0617614650
H                 3.2944428662       33.2165148307        8.0077658902
H                 2.4677263578       32.2962676414        9.2368164189
H                 3.6830608324       33.5069672347        9.7139994738
N                -3.8594463067       27.6268307892        9.5911023185
C                -3.2914410721       27.6371580345        8.2250295400
C                -2.9281729118       29.0835724389        7.9083357573
O                -3.8288355714       29.9365428986        7.8121260286
C                -4.2752542434       27.1576940750        7.1528419097
C                -4.6868059427       25.7056305561        7.4034878618
C                -3.6299785119       27.3128997827        5.7884858707
C                -4.9411243367       24.9210082244        6.1388971794
H                -4.8110205096       27.1631961251        9.6190005468
H                -2.3867700858       27.0126895228        8.2367070713
H                -5.1593704358       27.7975192106        7.1911613821
H                -3.8988609869       25.2027516838        7.9667287042
H                -5.5968919248       25.6933980105        8.0018562956
H                -4.3151224768       26.9813190685        5.0222547216
H                -3.3889763723       28.3567003641        5.5981501539
H                -2.7195500292       26.7241580043        5.7263326555
H                -5.2234575563       23.9089625163        6.3872928227
H                -5.7375554993       25.3833549065        5.5658018227
H                -4.0387778255       24.8801195978        5.5229929453
N                -1.6710939042       29.3939129821        7.7935390667
C                -1.2409723774       30.7831381670        7.6110388154
C                -0.7612010847       31.0766364112        6.1964371334
O                -0.2689028104       30.1435158006        5.4764560578
C                -0.1563597092       31.1540363052        8.6150796344
C                -0.6256928224       31.3017031760       10.0469959359
C                 0.5243848247       31.1926367089       11.0442863456
O                 1.0849623544       29.9409333385       11.1325849198
N                 0.9048677151       32.1250955507       11.6896851252
H                -0.9308020155       28.6975921990        7.8093637354
H                -2.1393854738       31.4017290176        7.7699048924
H                 0.6139150615       30.3699441264        8.5868724657
H                 0.3012702385       32.0969637369        8.2839637260
H                -1.0520392069       32.3173264700       10.1888751153
H                -1.3893260216       30.5445710951       10.2606043006
H                 0.4796988799       33.0982291730       11.5795954249
H                 1.6884071849       32.1148570047       12.3849062916
N                 1.8839188236       32.8822949510        3.6793296243
C                 3.2575408236       33.3420687506        3.5539935201
C                 3.3832411351       34.1867152631        2.3070641123
O                 2.6743398656       33.9360865184        1.2572937077
C                 4.2358767701       32.1467972751        3.4835265380
C                 3.5684231154       30.8865197527        4.0047232878
C                 4.7101732817       31.9174705709        2.0425428895
H                 1.5774654232       32.2958215149        2.9217275672
H                 3.4769139885       33.9701369651        4.4262724642
H                 5.1099291529       32.3747581532        4.0983117895
H                 4.2594750478       30.0433684021        3.9409395385
H                 3.2545436502       31.0240753578        5.0296612266
H                 2.6923791985       30.6469161527        3.4088872235
H                 5.3936695862       31.0694208501        2.0065330581
H                 3.8587763668       31.7156914455        1.4041837975
H                 5.2171895172       32.7972044852        1.6760907849
N                11.8556339662       28.8093747025        2.7654186253
C                10.9370116931       28.3854250800        3.8271682648
C                11.5860847573       27.2944864982        4.7153304705
O                12.0841032114       26.2308383684        4.1311872446
C                 9.6030228951       27.9744689798        3.2061532035
C                 8.4229350136       28.0189633860        4.1622618567
C                 8.1978672642       29.4351189122        4.6743899924
C                 7.1862719318       27.5090305783        3.4812959128
H                11.8822425317       28.1738562684        1.9590879430
H                10.8112816418       29.2553099562        4.4906542679
H                 9.4042566893       28.6500093775        2.3474083751
H                 9.7184338908       26.9503945847        2.8342487873
H                 8.6448387729       27.3701632526        5.0263910919
H                 7.3403476567       29.4520122943        5.3474513676
H                 9.0694968473       29.7832874244        5.2087323440
H                 8.0100339346       30.0975699231        3.8348012047
H                 6.3365664016       27.5482208844        4.1614539958
H                 6.9625174371       28.1251477317        2.6065153281
H                 7.3364299537       26.4825062815        3.1558648107
N                11.5812955706       27.4069844540        5.9651894792
C                12.4131720190       26.6179410511        6.9080364968
C                11.5979133817       26.2053494553        8.1334848773
O                11.4355183202       27.0404164428        9.0664593762
C                13.6242858862       27.4423507964        7.3712643682
C                14.4861643990       27.8580805743        6.1762910351
C                14.4423035051       26.6626906531        8.4002635737
C                15.4176391642       26.7939655225        5.7109304885
H                11.0953001404       28.2011794645        6.4257574294
H                12.7073982490       25.7228180161        6.3441599283
H                13.2554691836       28.3400519527        7.8477166746
H                13.8319498085       28.1459259802        5.3420035313
H                15.0765383582       28.7276561266        6.4512879760
H                15.2988761549       27.2502608922        8.7027952957
H                13.8154332252       26.4429531046        9.2675811027
H                14.7837405837       25.7312903670        7.9757068588
H                15.9925747387       27.1482154836        4.8622628636
H                16.1144567107       26.5183628398        6.5161280012
H                14.8648235947       25.9128264096        5.3987129175
N                11.0764016595       25.0607865961        8.1623736563
C                10.2377003297       24.6200595225        9.2793679891
C                11.0645080879       24.1259863514       10.4932017789
O                12.1048467692       23.3753172300       10.2396180821
C                 9.2648411456       23.5414055598        8.8262345949
C                 8.9004966629       23.6276226766        7.3619326720
C                 7.8761414461       24.4240030204        6.9545282834
C                 9.5616920721       22.8331220254        6.4465114056
C                 7.5259744567       24.4737691789        5.6139109794
C                 9.2071543982       22.8818561275        5.1067893175
C                 8.2211769361       23.7017327910        4.6988167376
H                11.2357722222       24.3187791252        7.4368869952
H                 9.6899614037       25.5079441847        9.6238268858
H                 9.7192209337       22.5700371987        9.0177702084
H                 8.3649841373       23.6198583518        9.4152831762
H                 7.3366639494       25.0370669907        7.6747887906
H                10.3494449940       22.1669090288        6.7856542476
H                 6.7291536820       25.1257965008        5.2929311762
H                 9.7650305956       22.2658526611        4.3961478073
H                 7.9454018774       23.7541638739        3.6375725760
N                10.7053892360       24.4112565357       11.6598542532
C                11.5050089572       24.0430729225       12.8647187733
C                11.6661562168       22.5076834686       12.9551392966
O                12.8780105292       22.0546624370       12.9567353439
C                10.9470022631       24.6096576425       14.1819867373
C                11.7073602356       25.8276781435       14.6781765817
O                12.6991433491       26.2851790099       14.0005507172
N                11.3152901309       26.3772946049       15.7881852345
H                 9.8649065063       24.9983827063       11.8862361298
H                12.4910517083       24.4727148642       12.7004211711
H                 9.9147857223       24.9014065106       14.0308650459
H                11.0026000606       23.8414628706       14.9578178985
H                11.7801904064       27.1950225895       16.1723172284
H                10.5183196099       25.9858166010       16.3131795631
N                10.7082883500       21.7515171421       13.1151338693
C                10.7273041331       20.2968648184       12.8160422674
C                10.3117633657       20.0796229456       11.3710684049
O                 9.7987962823       21.0618957348       10.7346009647
C                 9.8284075581       19.5002576562       13.7662681780
O                 9.4073991709       18.2892919831       13.1802305257
H                 9.7472019135       22.1145875377       13.2946551133
H                11.7555422954       19.9668787955       12.9516712148
H                10.3567211857       19.3434155907       14.7134989501
H                 8.9428257182       20.0939049998       14.0023229142
H                 8.8443822379       17.8163178702       13.8426389556
N                10.4241445300       18.9392297347       10.8506510274
C                 9.8776013154       18.6393671321        9.5243354338
C                 8.4305783335       18.2495092183        9.7599218795
O                 7.5529674722       18.5252725410        8.8588927457
C                10.6921431786       17.5664196958        8.7931904587
C                12.0243629019       18.1291330718        8.2479347655
C                11.8646480403       19.3377617480        7.2583979624
O                11.5505917045       19.1173153810        6.1049847594
O                12.0969380895       20.5317011677        7.7450022447
H                10.9075838478       18.1450889416       11.3132825296
H                 9.9317715693       19.5368360734        8.9164341114
H                10.9062836816       16.7416423103        9.4879250292
H                10.1024994076       17.2091531665        7.9542180944
H                12.6619304992       18.4403769243        9.0903591062
H                12.5284589664       17.3347759283        7.7010668076
N                 8.1453466665       17.6762893939       10.8424672844
C                 6.8213061728       17.1172447689       11.1550659607
C                 5.9492721168       18.2101886387       11.8044702245
O                 4.8946101042       17.8444115294       12.4022702701
C                 6.9411116716       15.8511670935       12.0403829314
C                 7.8442003888       14.7761837337       11.4796550963
N                 8.7494254307       14.1191456109       12.2899803652
C                 7.9422751762       14.2757703626       10.2637526238
C                 9.3638445360       13.2507815115       11.4584242473
N                 8.9213441824       13.3425843603       10.3497671723
H                 8.8147377501       17.5583296356       11.6161620303
H                 6.3621774063       16.8372188897       10.2059291208
H                 7.3115948836       16.1500078418       13.0350289593
H                 5.9334501183       15.4609206444       12.1635226549
H                 7.3558347103       14.5546707357        9.3421597243
H                10.1338044167       12.6024114224       11.8422329457
H                 9.2167008163       12.7617591371        9.4502828569
N                 6.3006954145       19.4104022428       11.7352177822
C                 5.4903483513       20.5035211577       12.3100416066
C                 4.3514248888       20.7651564176       11.3372221768
O                 3.3147997609       21.4120002822       11.7805985437
C                 6.3012465775       21.7825859627       12.5403012123
C                 7.2802465913       21.6521694310       13.6768501411
C                 7.8329297795       22.9555576781       14.1976023039
O                 7.7340844065       24.0295101915       13.5037720108
N                 8.4283938035       22.9644036878       15.3209284720
H                 7.1552751159       19.7451092733       11.2423932204
H                 5.1023109243       20.1754484780       13.2679892733
H                 6.8603568296       22.0262959922       11.6306147698
H                 5.6234979434       22.5946106333       12.7865691138
H                 6.8461302844       21.1134782048       14.5314191059
H                 8.1187261096       21.0794945376       13.3014949053
H                 8.4924937787       22.1030437254       15.9018555406
H                 8.7868941570       23.7974164234       15.7663834497
N                 4.4696281734       20.3797281263       10.1388073316
C                 3.7203000506       20.8680636280        8.9679858277
C                 3.0534441681       19.7601402932        8.1339645604
O                 3.5773008257       18.5823309718        8.0652229788
C                 4.6384002144       21.7652508685        8.1084742788
C                 4.4857670648       21.4284366069        6.6515631421
C                 4.3313592091       23.2196126705        8.3695314041
H                 5.1535525225       19.6429922618        9.8709646902
H                 2.8845471595       21.4586519355        9.3825942502
H                 5.6854961833       21.5729123534        8.3829021555
H                 5.1231918165       22.0640428542        6.0523205475
H                 4.7594341792       20.3823028564        6.4882140787
H                 3.4569465438       21.5753849352        6.3426413485
H                 4.9646745595       23.8382867192        7.7500005646
H                 3.2928407671       23.4164186623        8.1343718311
H                 4.5134437354       23.4572064271        9.4240933001
N                 1.9877115011       20.0592178323        7.5385460015
C                 1.3199637415       19.1322400939        6.6442990395
C                 1.8241690950       19.3771106008        5.2183873165
O                 1.3965513257       20.3428216639        4.5520949700
C                -0.1924239776       19.2494891363        6.7590995264
C                -0.6994344141       18.7657190089        8.1133455779
C                -2.1921080863       19.0133054645        8.2663006369
C                -0.3628384406       17.2944531241        8.3048427937
H                 1.4925310500       20.9728324983        7.6314059628
H                 1.6440928734       18.1168849347        6.9291544102
H                -0.4745035960       20.3007411174        6.6228204654
H                -0.6552712629       18.6617617791        5.9752534821
H                -0.1923285704       19.3584550953        8.8805522616
H                -2.5325358510       18.6612440800        9.2324962998
H                -2.4042177868       20.0775389208        8.1886424082
H                -2.7436831876       18.4880723425        7.4883940902
H                -0.7294368303       16.9522392956        9.2653087012
H                -0.8246694397       16.7108846982        7.5150179341
H                 0.7144236991       17.1504272038        8.2745729253
N                 2.7024470484       18.5731405154        4.7671133314
C                 3.3878813964       18.7816138837        3.4777945975
C                 2.4237743514       18.3749696475        2.3579823073
O                 2.6860692306       18.8467514908        1.1511647159
C                 4.7105100545       18.0146248489        3.3952623832
C                 5.6780594179       18.3953756158        4.5073805614
C                 7.1255873142       18.1325732724        4.1548624442
C                 8.0469578972       19.0002145606        4.9928895149
N                 9.4557591715       18.9202696110        4.4896886151
H                 3.0332228226       17.7306372739        5.2770685011
H                 3.6151562439       19.8495041033        3.3987916539
H                 4.5007359438       16.9350084429        3.4442808241
H                 5.1628702890       18.2499090438        2.4288606368
H                 5.5592889812       19.4641925867        4.7299169513
H                 5.4203729325       17.8422221100        5.4192725892
H                 7.3512717455       17.0709877456        4.3317159543
H                 7.2777010375       18.3524185859        3.0935218667
H                 7.7236667894       20.0380490228        4.9617269660
H                 8.0404691985       18.6582002221        6.0297602968
H                10.1530170468       18.9767233335        5.2151818391
H                 9.5846158533       18.0287382494        3.9521751264
H                 9.6272446573       19.7055193805        3.8119072123
N                 1.4696947593       17.6464263513        2.6014018565
C                 0.4469766317       17.2653416073        1.6139145968
C                -0.3477401269       18.5270283952        1.3399429226
O                -1.2584486902       18.4731434861        0.4564701228
C                -0.4383398014       16.1046817134        2.0895543441
C                -0.8912783717       15.2407497128        0.9354299056
O                -0.5190176765       14.0215718462        0.8590936535
N                -1.6749585041       15.7837631801        0.0662037167
H                 1.2727855462       17.2374083859        3.5550593946
H                 0.9549271458       16.9351738223        0.7050062320
H                 0.1325083268       15.4929659623        2.7856217870
H                -1.3252232012       16.5153695848        2.6049983164
H                -2.0133519938       15.2513872801       -0.7493535821
H                -1.9253601980       16.7721356843        0.1210771207
N                -0.0896055656       19.5850680294        1.9942285126
C                -0.9197201226       20.8006564925        1.9276785490
C                -0.1193981433       22.0717670765        2.2670551808
O                -0.9187929026       23.1636827899        2.6363276275
C                -2.2107972120       20.5903972389        2.7613180398
C                -3.1348878835       21.7820067792        2.6974653581
O                -3.1014181275       22.6113600878        3.7724690840
N                -3.8090965946       22.0003278507        1.7495212692
H                 0.6962056327       19.6679768754        2.6733228777
H                -1.2002284869       20.9048736515        0.8710231847
H                -2.7719193546       19.7389691636        2.3314355379
H                -1.9320295491       20.3527052217        3.7909165942
H                -4.4608037546       22.8012744755        1.6460746891
H                -3.8180767164       21.3520706147        0.9205400494
N                 1.0948597678       22.1765316215        2.2162354261
C                 1.9120427544       23.3753744967        2.5537919983
C                 2.8610848867       23.6390880227        1.4121266782
O                 3.2724320706       22.6427142210        0.7451277584
C                 2.7288399979       23.1905907044        3.8614399929
O                 1.8417042626       22.9883186044        4.9585507880
C                 3.5503767507       24.4077398650        4.1445190215
H                 1.6844337451       21.3541960350        1.9771071798
H                 1.2140622694       24.2077528222        2.6741776810
H                 3.3838746551       22.3325054439        3.7459572590
H                 1.5521809381       22.0556568759        4.9642569761
H                 4.1152054870       24.2849663125        5.0742833687
H                 4.2480371014       24.5976352201        3.3336645582
H                 2.9101501069       25.2835148025        4.2237343302
N                 3.2296690753       24.8515650276        1.1681629062
C                 3.9367841442       25.2227843691       -0.0712211000
C                 4.1485946798       26.7111328646       -0.1708140033
O                 3.6201588705       27.4329283396        0.6951379568
C                 3.1185843660       24.8058296259       -1.2931832412
C                 1.7839425495       25.4966022301       -1.3784476853
C                 1.6532061162       26.7503143499       -1.9700304513
C                 0.6475149596       24.8969382291       -0.8252729384
C                 0.4286164822       27.3670869674       -2.0171894563
C                -0.5759390033       25.5401896104       -0.8642246832
C                -0.6685259643       26.7639487755       -1.4695316315
O                -1.8947220996       27.4296869572       -1.5126376629
H                 2.9734169521       25.6555150356        1.7725005519
H                 4.8986083356       24.7020398957       -0.0729388446
H                 3.7099813788       25.0394273964       -2.1970326484
H                 2.9647855163       23.7311618483       -1.2518340735
H                 2.5338428368       27.2158140282       -2.4126477781
H                 0.7339639388       23.9415577845       -0.3281793594
H                 0.3453809305       28.3332435885       -2.5160202089
H                -1.4391560322       25.0657406193       -0.4182776111
H                -2.5798966610       26.8472675911       -1.1050028575
H                 6.4670489417       27.8241462350       -8.6456981407
H                 7.0983597572       25.7514764442       -5.3498691964
H                 5.7856866212       23.4829386301       -4.1298611053
H                 2.0307460474       15.8349057978       -3.8154701189
H                 3.7018357444       16.3630322583       -6.0269404308
H                 7.0368220465       18.6770064520       -6.0623330818
H                13.3139860229       23.9774565313       -1.6161377169
H                13.6859828657       26.1695224114       -1.3509668541
H                 0.5296902216       29.5273681766        1.0367003713
H                -1.3563159503       16.9590771382       14.7571224771
H                 7.2583545762       24.4662729709       17.8332341846
H                 7.4886000089       27.0340113644       15.1201512241
H                 7.4692591483       27.6762442595       11.9899437010
H                 9.7034838609       29.7743472610        9.3569793065
H                 6.4003124739       32.8500132973       10.4474653214
H                 4.3470482957       31.5789403772       13.4882418925
H                -3.3094757602       27.1747873735       10.1417284606
H                -0.8307471454       32.0033034246        5.8270435876
H                 1.7949071817       32.4047240298        4.4369594435
H                 4.0235753492       34.9545143445        2.2856943987
H                11.6071798534       29.6180788037        2.4583873069
H                 4.6988947176       27.0891450813       -0.9153115737
