 447 
 
N               -19.5336727653       71.5818373049       16.5123126515
C               -20.2824973730       72.1116416396       17.6372936323
C               -21.6740229956       72.6237796580       17.2624585869
O               -22.4057615272       73.1061951978       18.1127328809
C               -19.4636429776       73.2348514073       18.2616480692
C               -19.9615759511       73.7428352123       19.6115708285
C               -19.1387468995       75.0074573917       20.1590194071
O               -18.4236294544       75.6394782607       19.3465676875
O               -19.2744789854       75.2926879052       21.3715831257
H               -18.7174531017       72.1359139778       16.2828696296
H               -20.4180844638       71.3091196165       18.3788483260
H               -18.4332255607       72.8853183719       18.3824213118
H               -19.4398914050       74.0705492470       17.5570140287
H               -20.9987908338       74.0633817446       19.5458849882
H               -19.8859192113       72.9602743401       20.3678885296
N               -22.0714005007       72.3715077221       16.0074743619
C               -23.4109359877       72.6473185603       15.5777592803
C               -24.0142841545       71.5575447536       14.7086405920
O               -25.2285434870       71.3780028038       14.7279813814
C               -23.4751830103       74.0273117644       14.9584144770
C               -24.7792070386       74.1640085745       14.1873466860
C               -23.3030121767       75.0552208279       16.0740791196
H               -21.3768421027       72.3020671729       15.2814593426
H               -24.0371187203       72.6650144351       16.4813125527
H               -22.6353210159       74.1206432640       14.2604900611
H               -24.9111799884       75.1879699835       13.8435693045
H               -24.7733006897       73.5130739948       13.3170434505
H               -25.6252065391       73.8914124711       14.8117599381
H               -23.4553333231       76.0583281860       15.6764784595
H               -24.0139757834       74.8927777720       16.8778214351
H               -22.2988521991       75.0150430976       16.4853213342
N               -23.2082810476       70.7619512942       14.0050590582
C               -23.7501208065       69.4369647473       13.7629747800
C               -23.8612276859       68.6862702356       15.0974472187
O               -24.4686067602       67.6296411543       15.1666595633
C               -23.0802128565       68.5908959626       12.6573154603
C               -24.1239709856       68.0510685959       11.6554886655
C               -23.6107832280       67.3330394636       10.3390980884
O               -22.7490127504       66.4392525962       10.4660732157
O               -24.1584082421       67.6922436169        9.2739139509
H               -22.2124645673       70.9139407663       13.9455652303
H               -24.7964422469       69.5930172144       13.4639911172
H               -22.3586101679       69.2147909856       12.1272292945
H               -22.5389323324       67.7559421799       13.1016239866
H               -24.7584481558       67.3209788047       12.1641240617
H               -24.7595465562       68.8670599734       11.3042820875
N               -23.3834077092       69.3241309979       16.1770170778
C               -23.6020841601       68.7527406899       17.4972317093
C               -25.0497769496       69.0184766868       17.8304758314
O               -25.8582500271       68.1398497809       18.0803301559
C               -22.7585592521       69.4037880876       18.6130157644
C               -21.5562170931       68.5534161752       19.0159634993
C               -21.9494764749       67.2172917828       19.7611473408
O               -21.3312916721       66.9947252607       20.8233120342
O               -22.8150771212       66.4841672514       19.2391545596
H               -22.5720611304       69.9186039408       16.0607901325
H               -23.4271374788       67.6706575214       17.4952628657
H               -22.4227428305       70.3898806875       18.2825133030
H               -23.3829182077       69.5407172841       19.4996822863
H               -20.9854277733       68.2800784105       18.1229974136
H               -20.9002443803       69.1092076537       19.6891200337
N               -25.3408952384       70.3307841764       17.8302215357
C               -26.6004327157       70.7825866474       18.3590322749
C               -27.6886427152       70.1407505723       17.5267702326
O               -28.5972199327       69.4756682346       18.0150224581
C               -26.7454721134       72.2907323636       18.3420565926
C               -27.6288927051       72.6889412473       19.5069043440
C               -27.5033675555       74.1724354399       19.8178974707
N               -27.7487103671       74.4200301523       21.2330197665
C               -28.7278289159       75.1340173723       21.7831567096
N               -29.7240205970       75.6119863429       21.0463701813
N               -28.7255711703       75.3358707449       23.1061344421
H               -24.5812984541       70.9927330827       17.7808282907
H               -26.7010056368       70.3886291411       19.3808987407
H               -25.7554366411       72.7386129529       18.4602422370
H               -27.1715945918       72.6271852387       17.3965463075
H               -28.6652519799       72.4144701985       19.3124950052
H               -27.3082003456       72.1377791690       20.3940015544
H               -26.4805822374       74.5003376090       19.6088289527
H               -28.1656659785       74.7705632009       19.1954824851
H               -27.0542942902       74.0225260462       21.8505999967
H               -29.8354381937       75.3076435353       20.0919169770
H               -30.4797071169       76.1444038451       21.4448539329
H               -27.9218599177       75.0923538158       23.6627901639
H               -29.3890850959       75.9731385427       23.5180624550
N               -27.6102047285       70.3164859386       16.2109042282
C               -28.7496880135       69.8819215978       15.4387359381
C               -28.7800945324       68.3745462246       15.1505195311
O               -29.6451014013       67.8949946952       14.4343782580
C               -28.9263912349       70.8621133858       14.2816098571
O               -28.7775858656       72.1139085707       14.9309177906
C               -30.2908572819       70.7088886957       13.6140744387
H               -26.8650614987       70.8257847574       15.7518333620
H               -29.6359947218       70.0368063061       16.0787666840
H               -28.1153404350       70.7309050600       13.5474843975
H               -28.9425195435       72.8147669416       14.2905175320
H               -30.3371315995       71.2692323416       12.6842343148
H               -30.4715136354       69.6606542693       13.4016945168
H               -31.0642192960       71.0768054116       14.2815754121
N               -27.8929976491       67.6358944770       15.8421101877
C               -27.8810464502       66.1822553816       15.9402513255
C               -28.6295145368       65.6727813984       17.1736639422
O               -28.9176941134       64.4770783376       17.2614181626
C               -26.4211349734       65.6776102565       15.9528355095
C               -26.2077057181       64.1564160666       16.0077003448
C               -26.3043479687       63.4816792501       14.6189821855
N               -25.4144479598       62.3246632593       14.4747572685
C               -24.1663885815       62.3108412119       13.9912356903
N               -23.5262112904       63.4461669831       13.7185054650
N               -23.5262329473       61.1489611818       13.8181463402
H               -27.1784912015       68.0945087641       16.3919452141
H               -28.4121486033       65.7869113096       15.0676661412
H               -25.9496829245       66.0742566167       15.0556713118
H               -25.9101412020       66.1555655770       16.7892878883
H               -25.1958475120       63.9949259416       16.3815263132
H               -26.9323809262       63.6953038718       16.6767548018
H               -27.3210593173       63.1306174847       14.4484000251
H               -26.0737483541       64.2152233371       13.8442785324
H               -25.8062921309       61.4383174450       14.7596914746
H               -23.9595281330       64.3397338421       13.8873025783
H               -22.6244768195       63.4616135950       13.2733672896
H               -23.9811285744       60.2630256039       13.9638335396
H               -22.5865531799       61.1456752358       13.4575504052
N               -28.9275079293       66.5519595010       18.1365172291
C               -29.8320029651       66.1629893735       19.1953385335
C               -31.2642316388       66.4320535686       18.7087884687
O               -32.1800295787       65.6713422450       19.0090247209
C               -29.4267502396       66.7006996380       20.5702643952
C               -27.9650418461       66.4124644722       20.9550047219
C               -27.3967738661       65.0155973690       20.6240035943
C               -26.0645591334       65.1655848625       19.8801814249
N               -25.4964844562       63.8418533776       19.4760897152
H               -28.6359629135       67.5240704309       18.0992452056
H               -29.8057603911       65.0662390404       19.2558347105
H               -29.5649791900       67.7828776788       20.5852011360
H               -30.1038767223       66.2777074833       21.3133204665
H               -27.3357804992       67.1497004667       20.4543252083
H               -27.8794718874       66.5901206379       22.0271629187
H               -27.2391966823       64.4587542599       21.5468846945
H               -28.0808331740       64.4396821530       20.0045410878
H               -26.1948217898       65.7826707730       18.9909805997
H               -25.3337523714       65.6672091084       20.5158281190
H               -24.5483620955       63.9936309905       19.1018160152
H               -25.4319986241       63.2315748076       20.3048162092
H               -26.0969255727       63.3891982482       18.7702670949
N               -31.4737798571       67.3573049136       17.7736449179
C               -32.7610553721       67.3471785527       17.1086718744
C               -33.0226218721       66.1096323082       16.2815418918
O               -34.0755689647       66.0021027355       15.6977088548
C               -32.9358411405       68.5412415171       16.2083394572
C               -33.2692150646       69.7705051351       17.0341924492
C               -32.3101825626       69.9741491658       18.2224304638
C               -33.2778860482       70.9894307047       16.1123624992
H               -30.7676760066       68.0148730631       17.4792810610
H               -33.5601617889       67.3307180858       17.8653718317
H               -32.0119499617       68.6946408976       15.6445764891
H               -33.7370876988       68.3440738409       15.4976924697
H               -34.2747921597       69.6630190437       17.4519133969
H               -32.5535092942       70.9232085973       18.6974535619
H               -32.4222762693       69.2008936000       18.9740082968
H               -31.2716067286       70.0263277791       17.9035204175
H               -33.7842955755       71.8204112068       16.5957513486
H               -32.2598627781       71.2987516983       15.8870188665
H               -33.7936030059       70.7708769589       15.1824131519
N               -32.0626726643       65.1748840855       16.2174823838
C               -32.4151416300       63.8152053268       15.9208128905
C               -32.6726312246       63.0285291898       17.2142393107
O               -33.7737456245       62.5126988029       17.3655941977
C               -31.3648709886       63.1334082629       15.0530780140
C               -31.8107393297       61.7138081203       14.6774508744
C               -33.0788311557       61.7004862740       13.8198283566
O               -34.1520511994       61.2753728327       14.2150528723
N               -32.9250757837       62.2099941255       12.5809641574
H               -31.2006339137       65.2937846431       16.7263170798
H               -33.3769552426       63.8443616778       15.3967069894
H               -31.2306504135       63.7396452588       14.1568522028
H               -30.4183315809       63.0909133831       15.5940941923
H               -31.0167398454       61.2186766682       14.1166022171
H               -32.0106679641       61.1236931131       15.5731345913
H               -32.0171398225       62.4555428294       12.2241923722
H               -33.6807577620       62.1016231967       11.9236765327
N               -31.7001694579       62.9334873501       18.1411304510
C               -31.8785513527       62.0801465384       19.3250909041
C               -33.1792096432       62.4340287791       20.1420397947
O               -33.6127163051       61.6775744637       21.0031163460
C               -30.5351889041       61.8716137688       20.0863560422
C               -30.3151310292       62.6197093630       21.4106988046
C               -29.2272884231       61.9829639921       22.2828271039
O               -29.0300686150       60.7823133851       22.3712140533
N               -28.4292983559       62.8658929882       22.9234449542
H               -30.7999918991       63.3764496476       17.9894993195
H               -32.1671335366       61.0891223108       18.9379743931
H               -30.4569634096       60.8108682798       20.3309888621
H               -29.7265470961       62.1116345505       19.3951015656
H               -30.0771409550       63.6687304392       21.2486939471
H               -31.2399176992       62.5611451462       21.9916143134
H               -28.7535363105       63.7951792327       23.1656325892
H               -27.7784957232       62.4724794584       23.5879909938
N               -33.8342237725       63.5281447461       19.7130835721
C               -35.0705743395       63.9884093730       20.2805022327
C               -36.2665558658       63.7858471772       19.3790433654
O               -37.3274191886       63.4563832038       19.8958405114
C               -34.8845836576       65.4306108244       20.7278542408
C               -33.9630433598       65.4368320308       21.9402412405
C               -34.4600783612       65.8614342880       23.1703927433
C               -32.6365171027       64.9860796897       21.9421849023
C               -33.7100048867       65.8390355128       24.3361433808
C               -31.8519885535       65.0085955176       23.0917354987
C               -32.3743007441       65.4647847727       24.2997252643
O               -31.6498221186       65.5841563553       25.4410920116
H               -33.2856715402       64.2438078656       19.2492519287
H               -35.2797160787       63.3601573414       21.1600161140
H               -34.4492988742       66.0015354504       19.9073244585
H               -35.8382027151       65.8756159125       21.0048658727
H               -35.4893705651       66.1832128249       23.2310944944
H               -32.1712392787       64.6668826699       21.0283416963
H               -34.1599513552       66.0294798832       25.2938419036
H               -30.8160016736       64.7094546699       23.0691381875
H               -30.6997055427       65.4789622317       25.2187360094
N               -36.1919691855       63.9459424417       18.0582640885
C               -37.2787086226       63.4102374374       17.2391055720
C               -37.3803644510       61.8876937592       17.4692339824
O               -38.4711731766       61.4064731481       17.8062297573
C               -37.0899486187       63.8293260818       15.7725770081
C               -38.3812706772       64.0333384669       14.9578977035
C               -38.0428186466       64.2683306460       13.4537780420
N               -39.2048262589       64.6933568708       12.6290411422
C               -39.3814891126       64.7307609867       11.2962510043
N               -38.4919750519       64.2087345263       10.4547108728
N               -40.4709629037       65.3244962540       10.7839597351
H               -35.3135973633       64.1124905855       17.5890052606
H               -38.2201039478       63.7992381459       17.6335415190
H               -36.5329419708       64.7695177134       15.7723782703
H               -36.4702095827       63.0756004060       15.2802644804
H               -39.0248794804       63.1587359024       15.0635867754
H               -38.9232168123       64.8969884439       15.3440174518
H               -37.2822427559       65.0543362821       13.4113898758
H               -37.6267813994       63.3428379830       13.0557580618
H               -39.9184911568       65.1606918470       13.1743039191
H               -37.6266263316       63.8270246159       10.7967511230
H               -38.6235181175       64.2744817144        9.4579806912
H               -41.2032833112       65.6676389028       11.3847649930
H               -40.6626108711       65.2787182013        9.7970048779
N               -36.2692583455       61.1606632701       17.3375399654
C               -36.1825210283       59.7099160747       17.5090188200
C               -36.1677470124       59.3415648694       19.0096512178
O               -35.4631069477       58.4692078584       19.4812274281
C               -34.9952596903       59.0337426117       16.7912764097
C               -35.2825359842       58.2862222684       15.4741154385
C               -34.8188426487       56.7746291402       15.3660895005
O               -34.7419361583       56.3304247735       14.1994108787
O               -34.6030793903       56.1345090059       16.4141016065
H               -35.3796994623       61.6256321270       17.1693088210
H               -37.1206473688       59.2846190629       17.1188880837
H               -34.2301114471       59.7870700233       16.5993915632
H               -34.5766976951       58.2984743174       17.4872812983
H               -36.3549318327       58.2453774516       15.2648984787
H               -34.8110714535       58.8022543936       14.6381187566
N               -37.0671309386       60.0595211017       19.7159056925
C               -37.5668472553       59.5902137244       20.9956166922
C               -38.8614382478       60.3001521522       21.3925652105
O               -39.6530447871       59.6833839145       22.0892461494
C               -36.5151914782       59.5218470300       22.1143558459
C               -37.0893999935       59.2367523746       23.5095144924
S               -38.2279389755       57.7814686570       23.7978759221
C               -37.6485158463       57.2904650444       25.4742214478
H               -37.7757312996       60.5425731846       19.1627800673
H               -37.8899917622       58.5445893434       20.8580310116
H               -35.7863139090       58.7581179021       21.8401218759
H               -35.9839120044       60.4751209320       22.1806404539
H               -36.2536206465       59.0730724538       24.1873408097
H               -37.6527018982       60.1091736846       23.8301430482
H               -38.3917350120       56.5778790163       25.8141898974
H               -36.6723059653       56.8231220585       25.3963816763
H               -37.6102898370       58.1627925931       26.1169237565
N               -39.2207365852       61.4654732514       20.8442595254
C               -40.6400946744       61.7244749587       20.9250554346
C               -41.3554002395       60.4712347598       20.4533824301
O               -42.1623686198       59.7931482360       21.0682849325
C               -41.0922174571       62.8000848210       19.9653322594
C               -40.8579079123       64.1936348206       20.5053664954
C               -41.7199562053       65.1275787026       19.6729340412
C               -41.2215278180       64.3227155934       21.9742232373
H               -38.5789872356       62.1311142417       20.4285878402
H               -40.9392936499       61.9078903543       21.9595444163
H               -40.5563087405       62.6885366651       19.0227781339
H               -42.1628702109       62.6680986534       19.7825897009
H               -39.7980952657       64.4465533745       20.3936925453
H               -41.4783140017       66.1628689194       19.8976407825
H               -41.5826419249       64.9556965872       18.6103293366
H               -42.7591250000       64.9532731835       19.9318254141
H               -41.1987565563       65.3695071993       22.2720885860
H               -42.2256334711       63.9478988898       22.1545522177
H               -40.5184046047       63.7901357863       22.6061864788
N               -32.9621055679       65.0415665430       30.3713148157
C               -31.9365728453       64.9339093187       29.3154790035
C               -31.8336074148       66.2389643546       28.4825667485
O               -30.7352251976       66.5575297820       28.0312010347
C               -31.9937984079       63.6555194505       28.4390436663
C               -30.7961266914       63.4907007898       27.4426380787
S               -29.7169783834       61.9370259128       27.5423974404
C               -28.9163690738       61.8955821068       25.9112796176
H               -33.7747401464       64.4313408251       30.3960042435
H               -30.9643531879       64.8969944621       29.8321147365
H               -32.0046854241       62.7920175834       29.1050789430
H               -32.9175024655       63.6631973125       27.8603770021
H               -31.1775444890       63.4602576329       26.4238452487
H               -30.0970326422       64.3204815968       27.5228151906
H               -28.0171145597       61.3064448377       26.0371874411
H               -29.5886525174       61.4458624115       25.1866561742
H               -28.6678662827       62.9226525510       25.6618911904
N               -32.9153454851       67.0054733274       28.3113265770
C               -32.7705432847       68.3652163386       27.8187066099
C               -31.8030172159       69.2379976535       28.5956160600
O               -30.8449224970       69.7502932493       28.0296495301
C               -34.0026959555       69.2628808835       27.9018925959
C               -35.0399037634       69.1214145768       26.7982752647
C               -35.7993105760       70.4453402433       26.6742771732
C               -34.4117828051       68.7520829747       25.4663137609
H               -33.7649478425       66.7754721023       28.8199504938
H               -32.3552187409       68.3053433595       26.8089508971
H               -34.4729667839       69.1155085529       28.8751820760
H               -33.6205629515       70.2877890268       27.8713189026
H               -35.7391087602       68.3270009108       27.0854122974
H               -36.5972766832       70.3406907767       25.9449744358
H               -36.2276787974       70.7303185195       27.6323048555
H               -35.1321711710       71.2391193157       26.3481486207
H               -35.1824429157       68.5704612319       24.7224609315
H               -33.7872616199       69.5716322129       25.1202129627
H               -33.7939684938       67.8724410420       25.5431110702
N               -28.0853246454       67.5283516587       28.4911146029
C               -27.4511687738       67.7456543841       27.1961143180
C               -27.1136557391       69.2543533157       27.0422604930
O               -26.1557213759       69.6487615548       26.3971802086
C               -28.3202335221       67.2383723227       26.0313176367
C               -28.3493230701       65.6870540270       25.7287176525
O               -27.7973643833       64.8821209627       26.4902298276
O               -28.9732453471       65.3812605005       24.6754144734
H               -29.0320770787       67.1667318977       28.4566047986
H               -26.4879898795       67.2144115198       27.1760558945
H               -29.3585087825       67.5255049742       26.2108833658
H               -27.9828780611       67.7027567353       25.1037946914
N               -29.2938583170       72.3045487910       26.4507070017
C               -30.5437067339       72.7484373998       25.8779870906
C               -31.6509938636       73.1036773657       26.8987189356
O               -32.0378962692       72.3658539931       27.7896465393
C               -31.0487210490       71.6091778634       24.9860478819
C               -30.0673361984       71.3134313692       23.8373042372
C               -32.4489936093       71.9548542692       24.4974412500
C               -29.4658095299       69.9174092498       23.9430065970
H               -28.8201534692       71.6009183260       25.8996055605
H               -30.3302562752       73.6368636819       25.2673459870
H               -31.1193919942       70.7314670618       25.6391483500
H               -30.6018026272       71.3782352511       22.8899114346
H               -29.2678066454       72.0540553127       23.8210855011
H               -32.7802956411       71.2262379039       23.7607578966
H               -33.1583421232       71.9323304340       25.3208336017
H               -32.4827025069       72.9443689569       24.0745622908
H               -28.7835316395       69.7214647120       23.1197005008
H               -28.9249930787       69.7787017760       24.8772569593
H               -30.2510266466       69.1638457018       23.9114577328
N               -32.2121070637       74.3051339225       26.6314578233
C               -33.3700390591       74.8935902758       27.2808774558
C               -34.7037142103       74.4704713242       26.6513745217
O               -34.7858733925       73.9304051881       25.5552535565
C               -33.2810693620       76.4277617248       27.1405762734
C               -34.5681776652       77.3125366020       27.4055109045
O               -34.6624465728       77.8781034385       28.5110628650
O               -35.3531426679       77.4407870000       26.4487269739
H               -31.9061468250       74.7957343398       25.8068007377
H               -33.3545474606       74.5731675534       28.3270196825
H               -32.4932491413       76.8130478646       27.7900956348
H               -33.0358202063       76.6481037599       26.0988023994
N               -37.3128304846       78.1176669232       22.7799278436
C               -36.9641199646       78.0073751160       21.3676163112
C               -36.6426673646       76.5691650357       20.9691511820
O               -37.0218504868       76.1086682073       19.8925530017
C               -35.7710361717       78.9390159887       21.0294424695
C               -35.5972986945       79.2804873101       19.5447336526
C               -34.3556434171       80.2338589544       19.2562434162
O               -33.2263747146       79.7955414488       19.5507038551
O               -34.6160443285       81.3369018547       18.7334063118
H               -36.8459854756       78.8240480373       23.3276861249
H               -37.8317574852       78.3195234259       20.7715402681
H               -35.9161987337       79.8793488452       21.5675079087
H               -34.8430426485       78.4894823653       21.3905261601
H               -35.4298986944       78.3722882388       18.9609704226
H               -36.4771208735       79.7927474513       19.1540147541
N               -35.8397701876       75.8696996228       21.7710924295
C               -35.4545324739       74.5489568478       21.3233604197
C               -36.7070196609       73.7534277174       21.0186508727
O               -36.8341845554       72.9624985097       20.0844009379
C               -34.5234252799       73.9475992820       22.3610316595
C               -33.1490973484       74.6469688305       22.2530673830
C               -32.8057942800       75.3639929169       23.5595011046
C               -32.0863029658       73.6527100229       21.7640786430
H               -35.7524363698       76.0762259854       22.7594189134
H               -34.9226150805       74.6563131381       20.3665919460
H               -34.9579621596       74.0731608250       23.3504089826
H               -34.4292746428       72.8780656541       22.1720525110
H               -33.2312608565       75.4283775641       21.4904739814
H               -31.7328799084       75.3958695958       23.7370972539
H               -33.1763490780       76.3893043999       23.5340105278
H               -33.3032401019       74.8765365693       24.3880986837
H               -31.1025259356       73.8745615637       22.1579837603
H               -32.3414099641       72.6418107424       22.0563398583
H               -32.0551988900       73.6618529091       20.6776334581
N               -38.1468382094       74.4852455440       17.7950572065
C               -37.3602996501       74.0230288714       16.6686361931
C               -37.7629704994       72.6298450691       16.1970164771
O               -37.7400879832       72.3282341873       15.0089084737
C               -35.8684475832       73.9839005193       17.0434041930
O               -35.4999918501       72.8506916855       17.7594607620
H               -37.6470340432       74.9045139753       18.5713756198
H               -37.4998418006       74.7045616489       15.8174901111
H               -35.2782223385       73.9688784412       16.1227883245
H               -35.6391075174       74.9087319380       17.5951330507
H               -35.9378231311       72.8462362016       18.6397909848
N               -38.0642384874       71.7617924196       17.1715834501
C               -38.5947324848       70.4773572662       16.8074454521
C               -40.1293892125       70.5339121305       16.6134858227
O               -40.7715989484       69.4969255732       16.5516616900
C               -38.1352596449       69.3501895052       17.7370045056
C               -37.2417874767       68.3389220591       17.0295353112
S               -36.9970873829       66.8274154846       18.0078478275
C               -38.7132428173       66.2752377405       18.0784391518
H               -38.2226727962       72.1024932220       18.1119162751
H               -38.2170094992       70.2879040146       15.7903848271
H               -37.6100445476       69.7849524849       18.5871401953
H               -39.0388805982       68.8596381829       18.0998111979
H               -37.6739044330       68.0449004603       16.0718059219
H               -36.2475846927       68.7468329505       16.8554593869
H               -38.7317416623       65.3595622301       18.6541842170
H               -39.3150129072       67.0162495619       18.5956003522
H               -39.0958127373       66.1320471812       17.0742794207
H               -19.2525028138       70.7486958278       16.7041947442
H               -41.1828065707       60.1122570066       19.5361330648
H               -32.5816629645       64.9022909833       31.1749725439
H               -31.9464299951       69.3964860705       29.5725061237
H               -27.6034487372       66.9346195828       28.9657490213
H               -27.6910178732       69.9431195982       27.4807282503
H               -28.7337135193       73.0046534333       26.5287537540
H               -35.5610099234       74.6327141876       27.1399656734
H               -38.1902391894       78.3016809666       22.8592549928
H               -37.5151693407       73.8512931220       21.5994403850
H               -38.7280922386       75.1139539554       17.5178037358
H               -40.5917593331       71.4174857526       16.5392461711
