 411 
 
N                 1.8164697301       31.6658139174       -0.6980595151
C                 1.8171223511       30.2894742295       -0.2667939924
C                 1.0878964877       30.1706495069        1.0522031766
O                 0.6153911380       31.1589214405        1.6089775125
H                 1.1561080756       32.2701525015       -0.2273496252
H                 1.3274591218       29.6476272375       -1.0091504372
H                 2.8430497558       29.9332136536       -0.1412848660
N                 0.9941162622       28.9337056676        1.5364990851
C                 0.3998544963       28.6955174335        2.8321165465
C                 1.1067791710       27.5353657937        3.5236556639
O                 1.6605001241       26.6402997633        2.8985992581
C                -1.1179848971       28.4271218116        2.7456440588
C                -1.4525583721       27.0505500590        2.1754588494
C                -2.9035264950       26.8346522841        1.7939977629
O                -3.2329921537       25.9380209782        1.0231114504
N                -3.8150094710       27.6618781436        2.3166243109
H                 1.5190010143       28.1777552678        1.1073442356
H                 0.5338215367       29.6029612229        3.4323526561
H                -1.5184802870       28.5337757762        3.7545113902
H                -1.5424511583       29.2059252061        2.1088162686
H                -0.8523143368       26.8600110373        1.2828715830
H                -1.2032384404       26.2573383483        2.8865387920
H                -3.5766442688       28.3934791135        2.9618779105
H                -4.7860859572       27.5151276939        2.0887753076
N                 1.0420075348       27.6135840494        4.8526423081
C                 1.5605889954       26.6083863920        5.7508994909
C                 0.3994403480       26.0328345528        6.5631902895
O                -0.3153075402       26.7444858797        7.2636824930
C                 2.6162148071       27.2138338153        6.6928822530
C                 2.9975222137       26.2119480774        7.7778244248
C                 3.8412577045       27.6289320531        5.8860731896
H                 0.5997010521       28.4222330085        5.2783760347
H                 2.0051265096       25.8202638608        5.1410137755
H                 2.1713813988       28.0967666067        7.1616006475
H                 3.7396438439       26.6502900381        8.4389329968
H                 2.1306776305       25.9358312694        8.3744927285
H                 3.4091095691       25.3118897962        7.3277963242
H                 4.5730108684       28.1052941748        6.5308743998
H                 4.2971460434       26.7572510342        5.4239056723
H                 3.5663189824       28.3302675524        5.1029301225
N                 6.6678440407       25.1452231923       17.5892473161
C                 6.1931258670       25.4083741360       16.2416765717
C                 6.7279860360       26.7647159380       15.7541367408
O                 6.4975000123       27.7905980541       16.3828353591
C                 4.6600358491       25.4400550606       16.2392269987
C                 4.1497927471       25.5377491190       14.8274651959
C                 3.9049192673       24.3897676243       14.0861299735
C                 3.9543571289       26.7793775413       14.2354874533
C                 3.4859189599       24.4814365878       12.7710478480
C                 3.5385488058       26.8743196870       12.9197607552
C                 3.3112324112       25.7234356906       12.1836227089
H                 6.0649709366       25.4394302233       18.3446059509
H                 6.5603185125       24.6230372110       15.5801301935
H                 4.2945333543       24.5237407328       16.7037645170
H                 4.3425424359       26.3160607076       16.8100704911
H                 4.0411137731       23.4183468440       14.5362855455
H                 4.1338374979       27.6771754824       14.8096189584
H                 3.3071538884       23.5817804182       12.2022562470
H                 3.3973997567       27.8464998977       12.4691748077
H                 3.0047511572       25.7966939967       11.1508702841
N                 7.4282587184       26.7256320937       14.6161614897
C                 7.7610276649       27.9421622830       13.9006984000
C                 8.3055130907       27.6133818014       12.5200315268
O                 9.1499619586       26.7479058712       12.3430215207
C                 8.8335441343       28.7976547133       14.6025370179
C                 9.1081978740       30.0710532414       13.8075753249
C                 9.8895684987       31.1141473426       14.6573744247
O                11.1007827969       31.2807446510       14.3826618372
O                 9.2498135571       31.7056421089       15.5421877872
H                 7.6104208962       25.8402436251       14.1460344946
H                 6.8521899782       28.5461797297       13.8146296172
H                 8.4756573813       29.0661380538       15.5985884400
H                 9.7494130410       28.2133778936       14.7043063934
H                 9.6725736576       29.8480552248       12.9016108429
H                 8.1566828219       30.5305635777       13.5285911165
N                 7.8249967482       28.3879256807       11.5441777290
C                 8.3224655416       28.3636490280       10.1845489785
C                 8.8539682966       29.7523430739        9.8297743880
O                 8.2639853771       30.7627767047       10.2044386846
C                 7.1907364135       27.9678786905        9.2133763874
C                 7.7309221248       27.8729051897        7.7907766540
C                 6.5669736123       26.6509528714        9.6711085452
H                 7.1419328597       29.1008646060       11.7735991316
H                 9.1298644545       27.6271713054       10.1414146281
H                 6.4297522599       28.7550679023        9.2562615466
H                 6.9607122514       27.5039457652        7.1196433995
H                 8.0559837300       28.8476144909        7.4386499818
H                 8.5803992289       27.1968500278        7.7478865401
H                 5.9030063033       26.2611399771        8.9050054431
H                 7.3434508541       25.9178737086        9.8755843675
H                 5.9943944921       26.7894680874       10.5860976127
N                 9.9705845438       29.7867251987        9.0936787528
C                10.5562291920       31.0423992722        8.6744048468
C                10.7833028728       31.0757300519        7.1649233740
O                11.1879138310       30.1005817605        6.5364856376
C                11.8947028451       31.2949973593        9.3883121499
C                11.6594173263       31.5583113966       10.8746227712
C                12.9476101303       31.7521804047       11.6776470640
N                13.8027391288       30.5819643665       11.6482388254
C                13.4912223404       29.4278326014       12.2333297387
N                12.4902908140       29.3169764327       13.0855451419
N                14.2462428311       28.3474544459       11.9797779718
H                10.4103958113       28.9259529713        8.7832352744
H                 9.8515014021       31.8331835825        8.9478361481
H                12.5264835731       30.4168315072        9.2436764801
H                12.3870445162       32.1482681044        8.9172314966
H                11.0470210370       32.4522535047       10.9937351210
H                11.1020037757       30.7219775493       11.2950415268
H                13.5219924134       32.5789089558       11.2637862356
H                12.6736447052       31.9824862430       12.7093972507
H                14.5824283773       30.6100078396       11.0031138122
H                11.9829738711       30.1241589011       13.4959574513
H                12.3561086658       28.4023819436       13.5041729274
H                14.9330483402       28.3446758507       11.2461143850
H                14.0008393678       27.4712203119       12.4146399933
N                10.4917495709       32.2522632045        6.6029487934
C                10.7916286623       32.5829424047        5.2261876435
C                12.0262658288       33.4783466869        5.2710381668
O                12.0420833905       34.4720977070        5.9977387190
C                 9.5941728568       33.3241298321        4.6237018348
C                 9.7031578583       33.6237342152        3.1271385896
C                 9.6130637981       32.3539276517        2.2870315294
C                 8.5789307227       34.5824868861        2.7345022136
H                10.2381077038       33.0337313607        7.1968816573
H                11.0147551319       31.6594710572        4.6907056620
H                 8.6992388355       32.7262803868        4.8040201677
H                 9.4936060543       34.2704621179        5.1593017365
H                10.6698993209       34.1028511659        2.9333041106
H                 9.6915765667       32.5942538624        1.2300568715
H                10.4110089099       31.6574662726        2.5291169678
H                 8.6566793969       31.8650773905        2.4534434927
H                 8.6256039256       34.8039850036        1.6712455323
H                 7.6118706362       34.1354178603        2.9533933097
H                 8.6506210478       35.5182334123        3.2816596954
N                15.6683850106       36.3961436181        7.9752683142
C                14.2423684216       36.1538689916        8.1194759600
C                13.5056541074       37.3855343292        7.5647372954
O                13.7884839530       38.5114079170        7.9518023649
C                13.8736787255       35.9633770587        9.5915863105
C                12.3816677449       35.6639961973        9.7719511490
S                11.6002396835       36.7154373268       11.0225221145
C                11.4444733415       38.3055612237       10.1540947605
H                16.2003729230       36.6401744350        8.7965775062
H                13.9786174383       35.2660253448        7.5336882419
H                14.4747308624       35.1502500693        9.9980897565
H                14.1325729881       36.8844402563       10.1203710823
H                11.8327837213       35.8057445380        8.8426566033
H                12.2038911924       34.6466382935       10.1152827337
H                11.0377592826       39.0047471311       10.8745561763
H                12.4131184167       38.6436997731        9.8008201298
H                10.7614919270       38.1991023546        9.3156266373
N                12.5104850609       37.1059684209        6.7215270033
C                11.5775557194       38.1063971587        6.2703234074
C                10.1582271605       37.8427575476        6.7835844909
O                 9.3864991664       38.7760136775        6.9458280002
C                11.5982601496       38.3246970201        4.7434810013
C                11.4572048611       37.0106677018        3.9681706696
C                12.8855297586       39.0511791423        4.3636154122
C                11.0063145199       37.2392553562        2.5299085418
H                12.4398783413       36.1746613651        6.3306248221
H                11.8847244366       39.0488147352        6.7431058924
H                10.7375813015       38.9606812766        4.5097265866
H                12.4134270655       36.4795548990        3.9702673286
H                10.7250308189       36.3705935036        4.4645040471
H                12.9186188082       39.2229078400        3.2932439475
H                12.9506018617       40.0079990972        4.8754009863
H                13.7479450190       38.4501589855        4.6503007213
H                10.9818539270       36.2959544443        1.9908079923
H                10.0129445908       37.6760911361        2.5134269645
H                11.6836093988       37.9075212082        2.0076324026
N                 9.8193344707       36.5748060584        7.0745196127
C                 8.5597392264       36.2636972393        7.7245034442
C                 8.7784622935       35.1072958759        8.7013221968
O                 9.5944137422       34.2284875227        8.4604620690
C                 7.5011554787       35.8581441171        6.6820186795
C                 6.0829791764       35.8657375054        7.2364109938
C                 5.0905634478       35.3750914022        6.1927939707
O                 5.4253839480       35.0542814228        5.0606323958
N                 3.8285141501       35.3194768672        6.6311276612
H                10.4686384576       35.8047240698        6.9624774407
H                 8.2303195627       37.1701611939        8.2433161578
H                 7.5576922886       36.5634891639        5.8509849383
H                 7.7257274161       34.8621795426        6.2988582748
H                 5.9996034995       35.2127079083        8.1081022948
H                 5.7998145335       36.8766004363        7.5353468846
H                 3.6114796811       35.5801690183        7.5777934334
H                 3.0753614131       34.9172522053        6.0799785615
N                 7.9763591086       35.1062895707        9.7661084114
C                 7.9252219249       34.0660790681       10.7702499998
C                 6.4555991442       33.7345988224       11.0293271985
O                 5.6057625951       34.6177816802       11.0408041076
C                 8.6138413389       34.5305659841       12.0802181194
O                 9.9721685837       34.1863623980       11.9441323005
C                 7.9975620476       33.9048337866       13.3281348668
H                 7.3414131588       35.8753240996        9.9347818976
H                 8.4624053849       33.1903406440       10.3992440535
H                 8.5148711826       35.6269451440       12.1476055256
H                10.4396179693       34.4156391078       12.7555121771
H                 8.5662655748       34.1936779752       14.2091955690
H                 6.9702427349       34.2280782923       13.4676096752
H                 8.0278351857       32.8204008004       13.2665897723
N                 6.2047055343       32.4416224720       11.2291107224
C                 4.8912983208       31.9368894639       11.5656365879
C                 4.9792495701       31.0844415077       12.8331616212
O                 5.6723154619       30.0752878030       12.8552950385
C                 4.3427552002       31.0087725986       10.4749092988
C                 4.3998174256       31.5766147791        9.0558796542
C                 3.9272268659       30.4870230138        8.0998537719
C                 3.5349389182       32.8254449832        8.9197460283
H                 6.9393416617       31.7543139525       11.0838855605
H                 4.2381455762       32.7985216899       11.7150119053
H                 4.9197548649       30.0818865532       10.5127214942
H                 3.3080585974       30.7767651582       10.7373435325
H                 5.4379272940       31.8324492291        8.8174719168
H                 3.8963429659       30.8523942795        7.0801612077
H                 4.5939271745       29.6313604253        8.1485179136
H                 2.9295112975       30.1585993369        8.3807903113
H                 3.4436789942       33.1081186311        7.8747181244
H                 2.5407296246       32.6239901766        9.3077993474
H                 3.9641825814       33.6541150067        9.4769683359
N                 4.1973883299       31.4642685980       13.8529906308
C                 4.2110052554       30.7870215476       15.1307895513
C                 2.8471193377       30.1897858765       15.4760940918
O                 2.6756252705       29.4846509516       16.4595925970
C                 4.6532167585       31.7788190354       16.2514573486
O                 5.6585939002       32.6410220934       15.7660510257
C                 5.0803506511       31.0250058840       17.5016722246
H                 3.8211176694       32.4014328626       13.8460812827
H                 4.9512648744       29.9801259614       15.0722026457
H                 3.8099286165       32.4447981618       16.4750457759
H                 6.5188516988       32.2021008388       15.8050862678
H                 5.3713882611       31.7313473425       18.2742243430
H                 4.2632683482       30.4061606808       17.8569880299
H                 5.9290102344       30.3819837505       17.2721760652
N                -1.6957281853       29.6610263868        7.6502412332
C                -1.2195700496       31.0128449885        7.4466378946
C                -0.6212139330       31.1634887739        6.0474070618
O                -0.0052286327       30.2462118650        5.5189946540
C                -0.1149363525       31.3955427500        8.4486713967
C                -0.5948616916       31.3591869751        9.9056274629
C                 0.3850140776       32.0949915176       10.8089837987
O                 1.1384248523       31.5351297432       11.5936266084
N                 0.3254895299       33.4334777600       10.7115285368
H                -1.0605366523       28.8918512808        7.4773625409
H                -2.0921869604       31.6628965957        7.5667325480
H                 0.7198250556       30.7039068778        8.3214988105
H                 0.2417146346       32.3930380250        8.1833677892
H                -1.5722295242       31.8393740303        9.9753705328
H                -0.6850998877       30.3259001310       10.2445119920
H                -0.2487961199       33.8818856233       10.0178200452
H                 1.0037533438       33.9988062865       11.1982310066
N                -0.7714055660       32.3687444667        5.4883667765
C                -0.1727031842       32.7224984820        4.2188901132
C                 1.2816414027       33.1722070921        4.4282268834
O                 1.6271888195       33.7724833484        5.4408498498
C                -0.8961572508       33.8977976338        3.5494219886
C                -2.3643968528       33.5852968941        3.2887837608
O                -3.1326395353       33.3148045856        4.2008450368
N                -2.7424918737       33.6183455758        2.0077522162
H                -1.3739852081       33.0554445990        5.9154043592
H                -0.1943720987       31.8482273806        3.5614183513
H                -0.8451119461       34.7644613930        4.2135779705
H                -0.3859513476       34.1331536420        2.6165997445
H                -3.7244757932       33.5036724962        1.7885818784
H                -2.1455951119       33.9190077746        1.2540125754
N                 2.0942844650       32.8851506132        3.4129471900
C                 3.4478924960       33.3796677365        3.3346958335
C                 3.5980890008       34.3001475611        2.1267121732
O                 2.8937520289       34.1831858154        1.1329336778
C                 4.4958514575       32.2472062877        3.2563838119
C                 4.5278707251       31.4956990970        4.5819925426
C                 4.2266989860       31.2893650024        2.1020865251
H                 1.7210507534       32.4219786024        2.5902165579
H                 3.6445669569       33.9537029556        4.2421347049
H                 5.4647524207       32.7307906542        3.1016633004
H                 5.2312479211       30.6696134034        4.5280868860
H                 4.8362060626       32.1665923346        5.3795077644
H                 3.5392879199       31.1010501797        4.8087805840
H                 5.0671853534       30.6110569074        1.9864636236
H                 3.3383165554       30.6957196916        2.3010051692
H                 4.0913801691       31.8314998865        1.1695846870
N                 4.5943415145       35.1875291321        2.2551149379
C                 5.0218894370       36.0173711682        1.1608709065
C                 4.8190552105       37.5131614526        1.3789028382
O                 5.2369092010       38.0958005568        2.3748383300
H                 5.0598373744       35.2809474365        3.1510260014
H                 6.0963178700       35.8644346886        1.0008264506
H                 4.4625746153       35.6972936901        0.2820221879
N                12.0070068186       28.4872768680        2.5904565459
C                11.0508942127       28.2467210846        3.6572693076
C                11.5628425015       27.0799235795        4.5091750759
O                11.8137570093       25.9827167603        4.0308961766
C                 9.6718316109       27.9381257819        3.0602677187
C                 8.5204153807       28.0344194699        4.0695003105
C                 8.2785531185       29.4747528461        4.5108892713
C                 7.2409636505       27.4843461581        3.4421263382
H                12.4233925460       27.6815476068        2.1319787630
H                11.0230942306       29.1575798319        4.2598257955
H                 9.4986332116       28.6363108503        2.2382621729
H                 9.7160200955       26.9243980870        2.6540520974
H                 8.7815074555       27.4264498677        4.9425235206
H                 7.4210171348       29.5211652772        5.1766129932
H                 9.1399235273       29.8749914081        5.0360474110
H                 8.0816815450       30.0974613256        3.6426494916
H                 6.4248960672       27.5166188094        4.1580866912
H                 6.9639550765       28.0860566262        2.5795099977
H                 7.3841361263       26.4569160437        3.1205704690
N                11.6921050503       27.3612335178        5.8146372396
C                12.4183836628       26.5053651825        6.7333523236
C                11.4954360421       26.1431622460        7.8990692304
O                10.9315580776       27.0012008361        8.5661517279
C                13.6691218269       27.2423640737        7.2571742373
C                14.6173273386       27.6087761710        6.1081496055
C                14.3754757251       26.4243820047        8.3362646550
C                15.1419230479       26.4177671925        5.3184841418
H                11.5130991935       28.3073264819        6.1394709042
H                12.7037646092       25.6080301004        6.1796865587
H                13.3123906247       28.1821987467        7.6964165962
H                14.1081187641       28.2798108006        5.4072111245
H                15.4698290286       28.1648940835        6.5065812642
H                15.3141984345       26.9026275031        8.6013414065
H                13.7497215463       26.3409964793        9.2213131698
H                14.5966133391       25.4236386332        7.9769752911
H                15.8536373097       26.7590105746        4.5677435529
H                15.6448427455       25.7005582737        5.9598941049
H                14.3443163602       25.9190907431        4.7710892424
N                11.3392421809       24.8359617758        8.1312818841
C                10.4185221422       24.3190080489        9.1260045173
C                11.2036515632       23.8642222726       10.3626482456
O                12.0672490862       23.0015478721       10.2925594415
C                 9.6727805993       23.1064915559        8.5490125899
C                 9.0978399769       23.4048849284        7.1917040343
C                 8.0523285133       24.3052884278        7.0420679617
C                 9.6266484678       22.7891669508        6.0643539062
C                 7.5334492163       24.5740822564        5.7876170998
C                 9.1114995965       23.0627659688        4.8096401556
C                 8.0607018874       23.9517555451        4.6696914413
H                11.8342000521       24.1498908091        7.5820728589
H                 9.7348931450       25.1354382943        9.3765079723
H                10.3874062386       22.2832154652        8.4651984406
H                 8.8885883217       22.8090299396        9.2485135174
H                 7.6479506053       24.7997369202        7.9098533959
H                10.4445706376       22.0918358842        6.1808503200
H                 6.7209492970       25.2758695709        5.6801828262
H                 9.5424760735       22.6036118718        3.9343271615
H                 7.6617779916       24.1542938634        3.6883693076
N                 4.4837515134       20.2833403602        9.9296467841
C                 3.7490061176       20.7577882147        8.7792741746
C                 3.1706524365       19.5850702474        7.9936801939
O                 3.7941912944       18.5485330687        7.7977424032
C                 4.7442013566       21.5644326836        7.9083323216
C                 4.2488019181       21.7542164725        6.4840808650
C                 5.0059050087       22.9165657242        8.5608301889
H                 5.2749044065       19.6933663283        9.7124465703
H                 2.9361972668       21.3997592793        9.1266179095
H                 5.6781639412       20.9916484323        7.8730941656
H                 4.9887220023       22.3183166827        5.9224130531
H                 4.1064631109       20.7950512901        5.9947157888
H                 3.3067194928       22.2956914693        6.4784957273
H                 5.7453591895       23.4640214148        7.9845714298
H                 4.0853937300       23.4938156163        8.5983429121
H                 5.3750012660       22.8005497732        9.5767034391
N                -2.7997566947       37.5443243138       -1.1521641715
C                -2.5497011404       36.7297238423       -2.3229830135
C                -2.8770841132       35.2699080794       -1.9920672496
O                -2.3837642194       34.7171408081       -1.0173112683
C                -1.0754826700       36.8433837573       -2.7499940347
O                -0.7239846294       38.2088411546       -2.7143907047
C                -0.9021164056       36.2376880859       -4.1396533348
H                -2.1029121108       37.5191350911       -0.4237882566
H                -3.2002082761       37.0908235543       -3.1224493366
H                -0.4693208310       36.2844298222       -2.0191129691
H                 0.2264218811       38.2858339272       -2.8610804750
H                 0.1258028231       36.3480534183       -4.4758108418
H                -1.1612238798       35.1839658215       -4.1203364381
H                -1.5550005566       36.7413518048       -4.8480279612
N                -3.7310517995       34.6863244189       -2.8338580004
C                -4.2019928469       33.3383843018       -2.6353596962
C                -4.2134107315       32.5894297125       -3.9673582343
O                -4.6161606789       33.1039506067       -5.0011273556
C                -5.6539346930       33.3204457727       -2.0964634767
C                -5.7736250725       34.0292933180       -0.7773457610
C                -5.8047180366       33.3280045838        0.4224320602
C                -5.8514691852       35.4151776581       -0.7314776062
C                -5.8934951991       33.9858969233        1.6370734754
C                -5.9317513750       36.0825762676        0.4753206081
C                -5.9403917551       35.3802032206        1.6761356949
O                -6.0101649709       35.9965653977        2.8829095246
H                -4.0705265532       35.1674850561       -3.6628223021
H                -3.5308718985       32.8616524170       -1.9148384444
H                -6.2860810448       33.8084470159       -2.8409456608
H                -5.9622278754       32.2797468865       -2.0029101670
H                -5.7563245053       32.2503331388        0.4109037987
H                -5.8498017201       35.9876838951       -1.6468465497
H                -5.9275469623       33.4457864224        2.5710474128
H                -5.9945761757       37.1596943508        0.4905215031
H                -5.9315560016       36.9619894726        2.7874228150
H                 2.6304237767       32.0242352450       -0.5601720172
H                 0.2054330123       25.0523122689        6.5325764938
H                 6.7849518807       24.2596422601       17.6989385479
H                12.8240908935       33.2583964045        4.7097031159
H                16.0679026070       35.6562083945        7.6545167670
H                 2.0584226366       30.3717999210       14.8888731782
H                -1.9509829372       29.5582823231        8.5071476861
H                 4.3299642415       38.0561509462        0.6962957522
H                11.6096676389       28.9520577568        1.9300776382
H                11.0142489534       24.2754616403       11.2542809244
H                 4.8033220271       20.9858312842       10.3926599463
H                 2.2471134164       19.6440099753        7.6147319299
H                -2.8659350068       38.4081969523       -1.3957714280
H                -3.8841331035       31.6463260636       -4.0135291257
