 254 
 
N               -12.6988024642       82.0693164075        5.2523368436
C               -11.8266264394       80.9607920189        4.9347388001
C               -11.8185639097       80.7022676706        3.4299219127
O               -10.7497714337       80.5976327342        2.8176849008
C               -12.2563914751       79.6932264495        5.6651615218
C               -11.2266228909       78.5651595795        5.4483680517
C               -10.5073509416       78.2405350036        6.7624436567
C               -11.8786506922       77.3228719641        4.8388909461
H               -13.3007470272       81.9732427812        6.0567652546
H               -10.7882869130       81.2010246206        5.2061658532
H               -12.3424818373       79.8990203715        6.7338323630
H               -13.2342080266       79.3687809474        5.3069395401
H               -10.4598937663       78.8993802460        4.7386339352
H                -9.7602773130       77.4604154235        6.6142509865
H                -9.9823401197       79.1129753526        7.1432217140
H               -11.2037428909       77.8964402702        7.5242797443
H               -11.1280182295       76.5523342567        4.6643870961
H               -12.6325446848       76.9182221093        5.5096091801
H               -12.3308520019       77.5585355109        3.8770757555
N                -7.5434425203       79.5893174520       11.2483168565
C                -8.9283764917       79.4587152019       10.8959553887
C                -9.4180592238       78.0855798302       10.4948731123
O               -10.6330400996       77.8733645652       10.5322470908
C                -9.2368241591       80.4606688712        9.7934517221
C                -9.1684789034       81.8835377027       10.3791585339
C               -10.5496944807       82.4982759258       10.6729209071
N               -10.8994050777       83.4799712625        9.6613996868
C               -11.9660304550       83.4591608035        8.8521621882
N               -13.0747800474       82.7963976269        9.1563199559
N               -11.9451013723       84.2884878705        7.8177657639
H                -6.8661314237       79.5202137112       10.5008580974
H                -9.5011392904       79.7106403168       11.8004572291
H                -8.4905861632       80.2994370270        9.0121078706
H               -10.2230088270       80.2311611992        9.3873886925
H                -8.5767138498       81.8274027960       11.2921463257
H                -8.6136510638       82.5159482651        9.6850270037
H               -11.2987025819       81.7051192848       10.7024861196
H               -10.5487700201       82.9725921807       11.6582015336
H               -10.1100407886       84.0159289317        9.3248132586
H               -13.1153498843       82.0658046966        9.8691847901
H               -13.8430766925       82.7244714707        8.5042258835
H               -11.1229448316       84.7975020440        7.5326334080
H               -12.7393454891       84.4029949773        7.2122418536
N                -8.5478517471       77.1689236697       10.0777524554
C                -8.9760995956       75.7942371342        9.9958014446
C                -9.5400815051       75.3464115447       11.3525589013
O               -10.5373728685       74.6228873155       11.4155182477
C                -7.8685363895       74.8482552889        9.5354291380
C                -7.4616225448       75.0088511914        8.0604820823
C                -8.4804119164       74.5040982644        7.0271740607
N                -8.7100455403       73.0673612591        7.0383984596
C                -8.7024579756       72.2165884185        6.0018202081
N                -8.3892394471       72.5922346391        4.7730216465
N                -9.1435295266       70.9651643932        6.1963161859
H                -7.5561451625       77.3447126940       10.1282577666
H                -9.8206789157       75.7373325701        9.2912619818
H                -6.9848326512       75.0072642791       10.1633075146
H                -8.1856975697       73.8174527478        9.7237932233
H                -7.2821439708       76.0706990144        7.8788832889
H                -6.5009154924       74.4992400280        7.9239503319
H                -9.4411344516       74.9927811206        7.2253812744
H                -8.1373134209       74.8024073612        6.0359789621
H                -8.8470626347       72.6515295719        7.9480002669
H                -8.2780406105       73.5781045535        4.4642376884
H                -8.5170258637       71.9427877685        4.0138006458
H                -9.1313742519       70.4937629487        7.1154325186
H                -9.0177688213       70.3266010071        5.4254251890
N                -8.9686835611       75.8587598615       12.4506179114
C                -9.5243192553       75.5455585761       13.7489560755
C               -10.7462244478       76.4150838609       14.0510140089
O               -11.8292720164       75.8743208890       14.3113843164
C                -8.4125067669       75.5699726676       14.7996274042
C                -7.6192984855       74.2609035771       14.7070214109
C                -6.1581253074       74.4021324538       15.2469114012
O                -6.0194613527       74.4375410316       16.4886492244
O                -5.2656093750       74.4964714155       14.3766137031
H                -8.0745032857       76.3288850482       12.4075779659
H                -9.9299643077       74.5225966962       13.7004374722
H                -7.7470364810       76.4190011240       14.6101636997
H                -8.8176046941       75.6860722502       15.8061912541
H                -8.1211409565       73.4774622341       15.2784050797
H                -7.5240295409       73.9613949464       13.6618488663
N               -10.6322583953       77.7524316671       13.9482407551
C               -11.7638286192       78.5942171839       14.3071381340
C               -13.0268053939       78.0153331594       13.6568812680
O               -14.0687767842       77.9136067803       14.2983759560
C               -11.5266929794       80.0706347215       13.9569931643
C               -10.3757253380       80.6407359429       14.7932638543
C                -9.9164137057       82.1092555670       14.5078987444
O               -10.7020806371       82.8761731446       13.9241460173
O                -8.7824589380       82.4275633341       14.9346472069
H                -9.7162346334       78.1710102402       13.8502689757
H               -11.9328719992       78.5199813280       15.3946738644
H               -11.3126244595       80.1573397561       12.8907862209
H               -12.4431831788       80.6273658113       14.1544188040
H               -10.6494314707       80.6062007164       15.8531466391
H                -9.4750291701       80.0323125775       14.6834383355
N               -12.9301227105       77.6515694530       12.3775210446
C               -14.1082958623       77.1978377661       11.6727140791
C               -14.4361594325       75.7316604437       11.9515137500
O               -15.5992873267       75.3967481461       12.1631891640
C               -14.0112917567       77.4084591830       10.1537650145
C               -14.9927297696       78.4455842946        9.5996851698
C               -14.5656258891       79.9464787172        9.6892665717
O               -15.0189985628       80.6805058138        8.7854486020
O               -13.8012768500       80.3263027564       10.6034083900
H               -12.0936461602       77.8370820687       11.8341225518
H               -14.9602716693       77.7630066598       12.0747997627
H               -12.9891104092       77.7119927630        9.9185461883
H               -14.2059681715       76.4547478585        9.6582945542
H               -15.1636415256       78.2540009804        8.5378550398
H               -15.9597235655       78.3538754497       10.1009553765
N               -13.4547898408       74.8211020655       11.8878214715
C               -13.8329640184       73.4399523856       12.1062147608
C               -14.6246349124       73.2899089404       13.4119154884
O               -15.6015122487       72.5590564781       13.4910427054
C               -12.6610585905       72.4637383081       12.1014336169
O               -13.2083135806       71.2155947554       11.7498767418
H               -12.4743846293       75.0526764352       11.7820839760
H               -14.5171111884       73.1244376132       11.3056521139
H               -11.9224138476       72.7927600404       11.3600785846
H               -12.1875492511       72.4329880128       13.0903605194
H               -12.5281647639       70.5286757025       11.8201657264
N               -14.1218052931       73.9795139117       14.4452262407
C               -14.8061776519       74.0723076611       15.7274932961
C               -16.3192396339       74.2189568919       15.5429799905
O               -17.1055860490       73.3267921844       15.8433145263
C               -14.2806730220       75.2537482413       16.5412885519
H               -13.3453885103       74.6178606316       14.3043350996
H               -14.6619606400       73.1295147077       16.2743219042
H               -14.9353449194       75.4215706468       17.3916906291
H               -13.2760678556       75.0324491647       16.8906104192
H               -14.2420274825       76.1526419170       15.9293149370
N               -16.7158012847       75.4190313566       15.1122055087
C               -18.1186643261       75.7722588034       15.1179278988
C               -18.9442481052       74.7173838650       14.3841063054
O               -19.9965404188       74.2929235848       14.8466734873
C               -18.3157586872       77.1358966609       14.4798825018
H               -16.0488246215       76.1173541122       14.8153323038
H               -18.4787161529       75.7769993827       16.1576392364
H               -19.3703262948       77.3954813467       14.4876051196
H               -17.7636686177       77.8871379654       15.0391251596
H               -17.9574061309       77.1211265033       13.4529877680
N               -18.4743284010       74.3564391955       13.1849355771
C               -19.1831993456       73.3955552192       12.3540497396
C               -19.5841302149       72.1667249617       13.1696301665
O               -20.7433470048       71.7615153718       13.2003902091
C               -18.3187671541       72.9608057975       11.1779542428
H               -17.5607176490       74.6658352437       12.8729982617
H               -20.1199259121       73.8507928236       12.0044808134
H               -18.8422733899       72.1975743541       10.6088735193
H               -18.1172682829       73.8132602351       10.5350250377
H               -17.3781689484       72.5553205392       11.5419109686
N               -18.5753222359       71.5421531227       13.7749639139
C               -18.7962235886       70.3607138926       14.5842492381
C               -19.8121316745       70.6533201478       15.6930751842
O               -20.8000061222       69.9436824226       15.8515897324
C               -17.4741250829       69.9081193196       15.1896151880
H               -17.6362657841       71.9265176361       13.7688896054
H               -19.2351594273       69.5722988774       13.9577054512
H               -17.6387795530       69.0689909298       15.8596445540
H               -16.7925273064       69.6060009509       14.3992498261
H               -17.0279699025       70.7280554530       15.7465230247
N               -19.4957391200       71.6967347910       16.4657298395
C               -20.2582199047       72.0952276054       17.6279413820
C               -21.7010806928       72.4695470822       17.3081100114
O               -22.5269344332       72.5557411793       18.2090415550
C               -19.5782703685       73.2687293970       18.3324957222
C               -20.0792191164       73.4737815467       19.7527701419
C               -19.4545670933       74.7271440593       20.4579882896
O               -18.6511988769       75.4284330263       19.8112871913
O               -19.8066330535       74.9254619546       21.6381974856
H               -18.7010857191       72.2782408098       16.2172813652
H               -20.3189851853       71.2400524592       18.3193438118
H               -18.5006642655       73.0894507883       18.3572921365
H               -19.7462189421       74.1795092463       17.7534218067
H               -21.1632307382       73.5969504911       19.7676037436
H               -19.8485626500       72.6020675615       20.3717332139
N               -21.9997941914       72.6585850672       16.0208262787
C               -23.3507836336       72.9395895708       15.6152702541
C               -23.9881334247       71.7481374940       14.9287849083
O               -25.1683441598       71.4725505421       15.1705464370
C               -23.4345561861       74.2170458005       14.7842559828
C               -24.7785202727       74.2964906471       14.0665883915
C               -23.2108813995       75.3908708273       15.7310703948
H               -21.2607692992       72.7901502531       15.3446913833
H               -23.9233318478       73.0826468293       16.5424285907
H               -22.6266130236       74.1868479926       14.0457550697
H               -24.8691590785       75.2477917344       13.5497682816
H               -24.8685461512       73.4960942480       13.3365243189
H               -25.5936667356       74.2020391404       14.7789585461
H               -23.1921399349       76.3276024651       15.1796519618
H               -24.0050311834       75.4370523330       16.4711626179
H               -22.2604210566       75.2768064870       16.2468998723
N               -23.2508374120       70.9843556071       14.1320002669
C               -23.8538297049       69.7237641629       13.7559656531
C               -24.2406592935       68.9843183064       15.0421502236
O               -25.2440243634       68.2832866846       15.0858964705
C               -23.0270815150       68.8722857354       12.7864432892
C               -23.9828638017       68.0924256608       11.8802383593
C               -23.2993031678       67.1859294149       10.7954605474
O               -22.6688281167       66.1978330449       11.2128111187
O               -23.4938897135       67.5137016616        9.6104911182
H               -22.2827341425       71.1826262789       13.9102282207
H               -24.8122418397       69.9554703832       13.2677886178
H               -22.4040717072       69.5360764752       12.1833217598
H               -22.3680773332       68.1916595060       13.3274677968
H               -24.6078328582       67.4451192485       12.4983563321
H               -24.6240043309       68.7904182221       11.3388425375
N               -23.4783550153       69.2057005140       16.1137951093
C               -23.8506743315       68.6778517026       17.4079214993
C               -25.1811912317       69.2007654897       17.9321265283
O               -25.9024664586       68.4504192045       18.5765306105
C               -22.8090809374       69.0113978249       18.4868068163
C               -21.8466214897       67.8493896615       18.7171328535
C               -22.6156481805       66.6572560979       19.3810580117
O               -22.5826338509       66.6081060265       20.6218434921
O               -23.2133962190       65.8561405838       18.6295710502
H               -22.5720696343       69.6504062062       16.0291227317
H               -23.9501664044       67.5845514571       17.3497828385
H               -22.2724857720       69.9150631106       18.1923079674
H               -23.3159212714       69.2304914885       19.4308823690
H               -21.4050406160       67.5364378794       17.7699133490
H               -21.0575177375       68.1609718373       19.4037985366
N               -13.6229776222       76.3955296335       27.0025804344
C               -14.4189645609       77.3788103994       26.2930183225
C               -15.6235445158       77.8003456030       27.1411682145
O               -15.9782108035       78.9644493628       27.2424381451
C               -14.9829292650       76.7865438233       24.9952931251
C               -13.9038175531       76.5071387244       23.9534642916
C               -13.6009137717       77.7375313617       23.0973229224
N               -12.3362929789       77.5318577483       22.4183297717
C               -12.0922981556       77.5361402904       21.1141690235
N               -12.9539210127       78.0331851802       20.2329150043
N               -10.9227461095       77.0566617657       20.6821671021
H               -13.3388268820       75.5741672975       26.4809618175
H               -13.8117225384       78.2679800247       26.0888586743
H               -15.4849315222       75.8522120619       25.2475803057
H               -15.7292693013       77.4741686118       24.5956945357
H               -12.9995366400       76.1687017455       24.4614014643
H               -14.2368195316       75.6886911285       23.3153763106
H               -14.4053378673       77.8752521228       22.3767004115
H               -13.5268336166       78.6276771357       23.7249226821
H               -11.6214970104       77.1416122327       23.0204680025
H               -13.8419085305       78.4097901680       20.5197285083
H               -12.7352511949       78.0172353850       19.2504640431
H               -10.2436390720       76.6853256968       21.3239734274
H               -10.6575264488       77.1087430723       19.7127765843
H               -12.2045268043       82.8042936862        5.4120239496
H               -12.6819369383       80.6164047518        2.9327151421
H                -7.4036926845       80.3952030992       11.6238408997
H               -25.4547316526       70.1449106544       17.7483724910
H               -12.8599982288       76.7770397678       27.2894819204
H               -16.1513115615       77.1110753609       27.6375234086
