 421 
 
N                11.6050000000       24.5440000000        8.5260000000
C                11.5480000000       23.0860000000        8.6670000000
C                10.8250000000       22.4430000000        7.4790000000
O                10.2570000000       23.1410000000        6.6170000000
C                10.8190000000       22.7770000000       10.0020000000
C                11.5500000000       23.3970000000       11.2110000000
C                10.7730000000       23.0030000000       12.4930000000
C                11.5360000000       23.3960000000       13.7780000000
N                10.6490000000       23.1650000000       14.9330000000
H                10.7990000000       25.0600000000        8.8730000000
H                12.5840000000       22.7340000000        8.6780000000
H                 9.8020000000       23.1640000000        9.9290000000
H                10.7560000000       21.7020000000       10.1310000000
H                12.5600000000       22.9920000000       11.2510000000
H                11.6120000000       24.4790000000       11.1130000000
H                 9.8060000000       23.5060000000       12.4760000000
H                10.6030000000       21.9290000000       12.4700000000
H                12.4410000000       22.7970000000       13.8680000000
H                11.7830000000       24.4540000000       13.7370000000
H                11.1080000000       23.5110000000       15.7970000000
H                 9.7170000000       23.6710000000       14.8200000000
H                10.4520000000       22.1620000000       15.0240000000
N                21.3730000000       16.6460000000       12.5250000000
C                20.1390000000       16.9170000000       13.2150000000
C                20.1870000000       16.4390000000       14.6730000000
O                19.6310000000       17.1270000000       15.5460000000
C                18.9580000000       16.2470000000       12.4700000000
C                18.7010000000       16.9340000000       11.1260000000
C                17.8330000000       16.0120000000       10.2570000000
C                18.1210000000       18.3220000000       11.4040000000
H                21.4120000000       15.9030000000       11.8440000000
H                20.0000000000       18.0030000000       13.2600000000
H                19.2240000000       15.1970000000       12.3230000000
H                18.0660000000       16.2970000000       13.0950000000
H                19.6590000000       17.0510000000       10.6050000000
H                17.5280000000       16.5120000000        9.3400000000
H                18.4130000000       15.1390000000        9.9750000000
H                16.9400000000       15.6940000000       10.7910000000
H                17.7400000000       18.7520000000       10.4790000000
H                17.3140000000       18.2510000000       12.1280000000
H                18.8880000000       18.9870000000       11.7850000000
N                20.7800000000       15.2550000000       14.9200000000
C                20.9200000000       14.8020000000       16.3270000000
C                21.7330000000       15.7600000000       17.1510000000
O                21.4750000000       15.9710000000       18.3450000000
C                21.4880000000       13.3420000000       16.3780000000
C                20.4520000000       12.4460000000       15.7270000000
C                20.9850000000       11.0220000000       15.6130000000
O                22.2160000000       10.9010000000       15.4570000000
O                20.1580000000       10.0870000000       15.5810000000
H                21.1590000000       14.6750000000       14.1800000000
H                19.9120000000       14.7960000000       16.7640000000
H                22.4330000000       13.2960000000       15.8390000000
H                21.6620000000       13.0580000000       17.4130000000
H                19.5240000000       12.4490000000       16.3010000000
H                20.2330000000       12.7790000000       14.7110000000
N                22.7710000000       16.3280000000       16.5200000000
C                23.5970000000       17.2700000000       17.2620000000
C                22.8290000000       18.6020000000       17.5130000000
O                22.8910000000       19.1660000000       18.6030000000
C                24.9240000000       17.4810000000       16.5280000000
C                25.8980000000       18.3340000000       17.2910000000
C                27.2490000000       18.5640000000       16.5930000000
O                27.9560000000       19.5200000000       16.8800000000
N                27.6560000000       17.6020000000       15.7320000000
H                23.0470000000       16.0410000000       15.5900000000
H                23.7980000000       16.8390000000       18.2520000000
H                25.3330000000       16.4820000000       16.3670000000
H                24.7060000000       17.9180000000       15.5480000000
H                25.4810000000       19.3170000000       17.5120000000
H                26.1330000000       17.8650000000       18.2510000000
H                27.0130000000       16.9390000000       15.3360000000
H                28.4990000000       17.7720000000       15.2070000000
N                22.1070000000       19.0480000000       16.5150000000
C                21.2650000000       20.2990000000       16.6810000000
C                20.3670000000       20.2040000000       17.9000000000
O                20.1940000000       21.1540000000       18.6640000000
C                20.4400000000       20.4960000000       15.4140000000
C                19.6060000000       21.7270000000       15.4860000000
N                20.0990000000       22.9660000000       15.1000000000
C                18.3040000000       21.8660000000       15.9130000000
C                19.1270000000       23.8220000000       15.3310000000
N                18.0320000000       23.2200000000       15.7980000000
H                22.1200000000       18.6280000000       15.5910000000
H                21.9400000000       21.1480000000       16.8350000000
H                21.1260000000       20.5670000000       14.5690000000
H                19.7920000000       19.6250000000       15.2860000000
H                17.6110000000       21.1660000000       16.3150000000
H                19.1990000000       24.8760000000       15.1440000000
H                17.1950000000       23.6740000000       16.1350000000
N                19.7420000000       19.0350000000       18.0470000000
C                18.7740000000       18.8040000000       19.1320000000
C                19.4160000000       17.9590000000       20.2510000000
O                18.7230000000       17.3350000000       21.0620000000
C                17.5080000000       18.1030000000       18.6010000000
C                16.6660000000       18.9480000000       17.6940000000
C                16.0390000000       20.0840000000       18.1900000000
C                16.5900000000       18.6890000000       16.3270000000
C                15.2960000000       20.9350000000       17.3930000000
C                15.6970000000       19.4310000000       15.5590000000
C                15.0540000000       20.5550000000       16.0750000000
O                14.2610000000       21.3680000000       15.3430000000
H                19.8410000000       18.3040000000       17.3550000000
H                18.5340000000       19.7840000000       19.5580000000
H                17.8230000000       17.1970000000       18.0780000000
H                16.9310000000       17.8040000000       19.4800000000
H                16.1770000000       20.3330000000       19.2320000000
H                17.1340000000       17.8640000000       15.8970000000
H                14.8690000000       21.8350000000       17.7990000000
H                15.5900000000       19.1810000000       14.5150000000
H                14.0750000000       20.9840000000       14.4720000000
N                20.7370000000       18.0990000000       20.3990000000
C                21.4480000000       17.3310000000       21.3970000000
C                20.8230000000       17.5470000000       22.8060000000
O                20.8000000000       16.6020000000       23.5920000000
C                22.9010000000       17.7280000000       21.4880000000
H                21.3130000000       18.5800000000       19.7160000000
H                21.3420000000       16.2580000000       21.1920000000
H                23.4140000000       17.0530000000       22.1660000000
H                23.3680000000       17.6710000000       20.5090000000
H                22.9880000000       18.7450000000       21.8640000000
N                20.3680000000       18.7530000000       23.1180000000
C                19.8800000000       19.0000000000       24.4530000000
C                18.5980000000       18.2370000000       24.7220000000
O                18.1580000000       18.1040000000       25.8630000000
C                19.6800000000       20.4890000000       24.7450000000
C                21.0090000000       21.3070000000       24.7660000000
O                22.0860000000       20.7250000000       24.9810000000
O                20.8730000000       22.5320000000       24.5300000000
H                20.4250000000       19.5320000000       22.4700000000
H                20.6190000000       18.6160000000       25.1730000000
H                19.0010000000       20.9300000000       24.0150000000
H                19.2460000000       20.5770000000       25.7430000000
N                17.9550000000       17.7760000000       23.6560000000
C                16.6950000000       17.0230000000       23.7770000000
C                16.8680000000       15.5260000000       23.5420000000
O                15.8910000000       14.7770000000       23.4020000000
C                15.6730000000       17.5420000000       22.7810000000
C                15.4180000000       19.0530000000       22.8800000000
C                14.4040000000       19.4430000000       21.8010000000
C                14.9230000000       19.4500000000       24.2710000000
H                18.3640000000       17.7860000000       22.7280000000
H                16.3670000000       17.1570000000       24.8130000000
H                16.0480000000       17.3130000000       21.7810000000
H                14.7450000000       16.9890000000       22.9310000000
H                16.3600000000       19.5710000000       22.6850000000
H                14.2710000000       20.5210000000       21.7830000000
H                14.7470000000       19.1240000000       20.8210000000
H                13.4450000000       18.9750000000       22.0040000000
H                14.6600000000       20.5040000000       24.2760000000
H                14.0510000000       18.8610000000       24.5380000000
H                15.7010000000       19.2940000000       25.0150000000
N                18.1150000000       15.0290000000       23.5190000000
C                18.2970000000       13.6590000000       23.1330000000
C                17.7350000000       12.6290000000       24.1060000000
O                17.4800000000       11.4950000000       23.7140000000
C                19.7840000000       13.3200000000       22.9390000000
O                20.3910000000       13.4310000000       24.1830000000
H                18.9420000000       15.5910000000       23.6720000000
H                17.7710000000       13.4690000000       22.1850000000
H                19.8540000000       12.2940000000       22.5410000000
H                20.2170000000       14.0120000000       22.2020000000
H                21.2890000000       13.8210000000       24.1310000000
N                14.6970000000       13.0640000000       25.4920000000
C                13.2580000000       13.0770000000       25.4840000000
C                12.5930000000       11.9420000000       24.6820000000
O                13.0620000000       11.4800000000       23.6330000000
C                12.7390000000       14.3680000000       24.8230000000
C                13.2080000000       15.6260000000       25.5370000000
C                12.5920000000       15.7770000000       26.9160000000
C                12.9790000000       17.1190000000       27.5170000000
N                12.5320000000       17.2150000000       28.9270000000
H                15.1930000000       13.5510000000       24.7500000000
H                12.9490000000       12.9930000000       26.5280000000
H                13.1070000000       14.3730000000       23.7940000000
H                11.6500000000       14.3440000000       24.7960000000
H                14.2960000000       15.6080000000       25.6040000000
H                12.9250000000       16.4760000000       24.9140000000
H                11.5070000000       15.6960000000       26.8350000000
H                12.9570000000       14.9740000000       27.5570000000
H                14.0640000000       17.2300000000       27.4980000000
H                12.5310000000       17.9340000000       26.9490000000
H                12.9040000000       18.1170000000       29.3510000000
H                11.5100000000       17.2070000000       29.0280000000
H                12.9090000000       16.4390000000       29.4810000000
N                10.1710000000       12.0860000000       22.5580000000
C                 9.8740000000       12.5070000000       21.2150000000
C                11.1310000000       12.6780000000       20.3320000000
O                10.9860000000       13.1470000000       19.2040000000
C                 9.0890000000       13.8170000000       21.2570000000
C                 9.7730000000       14.9760000000       21.8990000000
C                10.7250000000       15.7120000000       21.2000000000
C                 9.4470000000       15.3720000000       23.1900000000
C                11.3060000000       16.8280000000       21.7610000000
C                10.0620000000       16.4800000000       23.7610000000
C                10.9900000000       17.2100000000       23.0570000000
H                10.3220000000       12.8120000000       23.2430000000
H                 9.2660000000       11.7360000000       20.7300000000
H                 8.8600000000       14.0770000000       20.2200000000
H                 8.1430000000       13.6220000000       21.7690000000
H                10.9810000000       15.4250000000       20.1910000000
H                 8.6910000000       14.8310000000       23.7400000000
H                12.0260000000       17.3930000000       21.1870000000
H                 9.7820000000       16.7780000000       24.7600000000
H                11.4430000000       18.0910000000       23.4850000000
N                12.3340000000       12.4290000000       20.8340000000
C                13.5230000000       12.8020000000       20.0850000000
C                13.6210000000       12.0540000000       18.7670000000
O                13.9110000000       12.6700000000       17.7380000000
C                14.7720000000       12.5300000000       20.9150000000
C                16.0670000000       12.8120000000       20.1970000000
C                16.4850000000       14.1280000000       19.9970000000
C                16.9290000000       11.7920000000       19.8490000000
C                17.7880000000       14.3690000000       19.6070000000
C                18.1600000000       12.0410000000       19.2840000000
C                18.6170000000       13.3530000000       19.2060000000
H                12.4810000000       12.0170000000       21.7510000000
H                13.4590000000       13.8680000000       19.8260000000
H                14.7410000000       13.1530000000       21.8140000000
H                14.7610000000       11.4850000000       21.2240000000
H                15.8430000000       14.9500000000       20.2740000000
H                16.6230000000       10.7680000000       20.0110000000
H                18.1410000000       15.3890000000       19.5710000000
H                18.8060000000       11.2290000000       18.9860000000
H                19.6210000000       13.5590000000       18.8660000000
N                11.2400000000       13.4030000000       16.3040000000
C                11.5230000000       14.7630000000       15.8990000000
C                12.6250000000       14.6980000000       14.8300000000
O                12.5940000000       15.3730000000       13.8040000000
C                11.9790000000       15.5580000000       17.1540000000
C                12.7800000000       16.8500000000       16.8990000000
C                11.9720000000       17.9110000000       16.1710000000
C                13.2390000000       17.4340000000       18.2160000000
H                11.3370000000       13.1460000000       17.2820000000
H                10.6410000000       15.2170000000       15.4340000000
H                11.0910000000       15.7890000000       17.7440000000
H                12.6120000000       14.8850000000       17.7350000000
H                13.6570000000       16.5990000000       16.2920000000
H                12.5410000000       18.8340000000       16.0950000000
H                11.7220000000       17.5860000000       15.1640000000
H                11.0490000000       18.1220000000       16.7060000000
H                13.8410000000       18.3230000000       18.0490000000
H                12.3790000000       17.7120000000       18.8210000000
H                13.8400000000       16.7190000000       18.7760000000
N                13.6380000000       13.8810000000       15.0960000000
C                14.7350000000       13.7690000000       14.1650000000
C                14.2030000000       13.2260000000       12.8350000000
O                14.5730000000       13.6460000000       11.7430000000
C                15.8440000000       12.8860000000       14.7340000000
C                16.8700000000       12.4610000000       13.6570000000
C                16.5140000000       13.6260000000       15.8870000000
H                13.6430000000       13.3420000000       15.9580000000
H                15.1390000000       14.7680000000       13.9430000000
H                15.3630000000       11.9820000000       15.1240000000
H                17.6470000000       11.8400000000       14.0950000000
H                16.3930000000       11.9080000000       12.8530000000
H                17.3510000000       13.3360000000       13.2210000000
H                17.3380000000       13.0470000000       16.2970000000
H                16.9240000000       14.5770000000       15.5510000000
H                15.8030000000       13.8080000000       16.6890000000
N                12.5270000000       15.8550000000       10.9670000000
C                13.4540000000       16.8660000000       10.4280000000
C                14.2470000000       16.3350000000        9.2250000000
O                14.7770000000       17.1290000000        8.4500000000
C                14.3840000000       17.3810000000       11.5220000000
C                13.6070000000       18.2110000000       12.4790000000
S                13.1600000000       19.8830000000       11.7680000000
C                14.7890000000       20.7180000000       11.8210000000
H                12.6600000000       15.5230000000       11.9180000000
H                12.8480000000       17.6940000000       10.0320000000
H                14.8270000000       16.5180000000       12.0310000000
H                15.1970000000       17.9360000000       11.0450000000
H                12.6530000000       17.7520000000       12.7260000000
H                14.1580000000       18.3970000000       13.3990000000
H                14.6180000000       21.7590000000       11.5780000000
H                15.2440000000       20.6230000000       12.7990000000
H                15.4430000000       20.2760000000       11.0730000000
N                12.4800000000       27.1010000000       12.9050000000
C                13.2750000000       27.0990000000       14.1050000000
C                13.9690000000       28.4580000000       14.2200000000
O                14.3950000000       29.0060000000       13.1890000000
C                14.4180000000       26.0450000000       13.9300000000
C                15.4590000000       26.1790000000       14.9790000000
N                15.3840000000       25.6010000000       16.2180000000
C                16.6050000000       26.9010000000       14.8940000000
C                16.4720000000       25.9770000000       16.8570000000
N                17.2410000000       26.7780000000       16.0810000000
H                12.9450000000       27.4260000000       12.0640000000
H                12.6460000000       26.8850000000       14.9690000000
H                13.9850000000       25.0470000000       13.9510000000
H                14.8780000000       26.2250000000       12.9590000000
H                17.0050000000       27.4950000000       14.0970000000
H                16.7370000000       25.6920000000       17.8540000000
H                18.1490000000       27.1710000000       16.3220000000
N                24.7110000000       26.9430000000       16.7450000000
C                23.9520000000       26.4400000000       15.5810000000
C                24.5080000000       26.9030000000       14.2370000000
O                24.5630000000       26.1700000000       13.2270000000
C                22.4730000000       26.9190000000       15.6900000000
C                21.8030000000       26.2000000000       16.8540000000
C                20.4190000000       26.6750000000       17.2010000000
O                19.8820000000       27.5650000000       16.5220000000
O                19.8570000000       26.1300000000       18.1840000000
H                24.2480000000       27.5430000000       17.4150000000
H                23.9850000000       25.3440000000       15.5910000000
H                22.4610000000       27.9980000000       15.8500000000
H                21.9470000000       26.7060000000       14.7580000000
H                21.7270000000       25.1270000000       16.6500000000
H                22.3990000000       26.3040000000       17.7650000000
O                22.3790000000       14.9300000000       24.6120000000
H                22.1250000000       14.8800000000       25.5480000000
H                21.8460000000       15.6590000000       24.2410000000
O                13.7720000000       19.4160000000       29.7780000000
H                14.7070000000       19.0590000000       29.7310000000
H                13.7330000000       20.1910000000       29.2120000000
O                18.3420000000       27.3200000000       20.0210000000
H                18.8890000000       26.8820000000       19.3330000000
H                18.3120000000       26.7120000000       20.7600000000
O                17.7970000000       19.8070000000       28.0380000000
H                18.6630000000       19.8860000000       28.4770000000
H                17.5630000000       20.6960000000       27.7260000000
O                22.5160000000       14.0700000000       19.9940000000
H                22.6670000000       14.1440000000       20.9540000000
H                21.9920000000       14.8200000000       19.6780000000
O                13.2890000000       23.7320000000       16.5340000000
H                13.6680000000       22.9100000000       16.2150000000
H                13.9950000000       24.3980000000       16.4680000000
O                20.2090000000       21.0280000000       21.5150000000
H                20.6330000000       21.7660000000       21.9640000000
H                20.2620000000       21.2080000000       20.5550000000
O                18.9590000000       23.5410000000       18.8990000000
H                19.2840000000       24.4230000000       18.6700000000
H                18.0070000000       23.6320000000       19.0590000000
O                24.2750000000       21.9010000000       18.8880000000
H                24.3070000000       22.0790000000       19.8320000000
H                23.7980000000       21.0650000000       18.8030000000
O                23.2110000000       13.8980000000       22.4880000000
H                24.0620000000       13.4560000000       22.5460000000
H                23.0120000000       14.2500000000       23.3700000000
O                21.3660000000       15.5930000000       26.8950000000
H                21.6630000000       16.5060000000       26.7690000000
H                20.4740000000       15.6120000000       27.2410000000
O                19.3310000000       25.5360000000       25.7640000000
H                19.7460000000       24.8540000000       25.2200000000
H                18.8030000000       26.0880000000       25.1750000000
O                23.0800000000       18.1920000000       25.6720000000
H                24.0400000000       18.2180000000       25.6500000000
H                22.7820000000       19.0930000000       25.4410000000
O                25.0870000000       14.4210000000       18.8370000000
H                25.1240000000       13.9290000000       18.0050000000
H                24.2120000000       14.2240000000       19.2150000000
O                16.1580000000       18.3720000000       29.5830000000
H                16.5940000000       18.2120000000       30.4340000000
H                16.7870000000       18.8520000000       29.0150000000
O                16.9660000000       22.5660000000       24.1410000000
H                17.8720000000       22.8530000000       24.2820000000
H                16.4290000000       23.3630000000       24.0660000000
O                17.3710000000       21.6620000000       21.4760000000
H                18.3190000000       21.4770000000       21.4510000000
H                17.1600000000       21.8770000000       22.4010000000
O                16.8630000000       22.0910000000       26.9770000000
H                16.8950000000       22.0310000000       26.0040000000
H                15.9280000000       22.0730000000       27.2130000000
O                16.3710000000       23.4440000000       19.6000000000
H                16.6870000000       22.7480000000       20.2020000000
H                15.6540000000       23.8860000000       20.0650000000
O                18.0265079571       24.2501592757       27.9610000000
H                17.7036203014       23.4194171003       27.5710000000
H                18.6189481716       24.6580227237       27.3210000000
O                14.8641321773       25.4935547989       28.8560000000
H                14.1093458658       24.8868830392       28.9110000000
H                15.0146744266       25.7248079744       27.9260000000
N                16.9063490843       25.3343313559       30.7660000000
C                17.2106587772       24.1532515065       31.5830000000
C                18.7007219662       23.8703863567       31.6480000000
O                19.2605558667       23.5227255971       32.7080000000
C                16.3848257523       22.9836362642       31.0060000000
C                16.9594052812       21.6364353271       31.4110000000
C                14.9106933440       23.1429084925       31.4030000000
H                16.4600299574       25.2313787600       29.8630000000
H                16.9119607380       24.3526116865       32.6190000000
H                16.4706507245       23.0689830517       29.9150000000
H                16.2927984617       20.8370322071       31.1000000000
H                17.9300127913       21.4912938054       30.9420000000
H                17.0783116692       21.6184834218       32.4920000000
H                14.3071102265       22.3683451185       30.9410000000
H                14.8169401685       23.0552937558       32.4830000000
H                14.5434176626       24.1190486330       31.1080000000
N                19.4052365548       23.9561312945       30.4680000000
C                20.8149459147       23.6684430593       30.4870000000
C                21.6235687041       24.6918673039       31.2970000000
O                22.5561743274       24.3065469809       32.0420000000
C                21.3989086351       23.5009899578       29.0800000000
C                20.7639172429       22.2868273114       28.3970000000
C                21.0888993863       20.9479417276       29.0690000000
O                22.2493126307       20.7680470305       29.4920000000
O                20.1533124953       20.1364257577       29.3120000000
H                18.9580148136       24.2787420726       29.6190000000
H                20.9463466423       22.7108503229       31.0180000000
H                21.2373406119       24.4088339829       28.4910000000
H                22.4755924061       23.3501189627       29.1630000000
H                19.6785828368       22.4026816461       28.3620000000
H                21.1177082036       22.2220433924       27.3590000000
H                12.3162702643       24.8618299853        8.9766425540
H                10.8035919637       21.4475685370        7.3859521708
H                21.6279033921       17.3774876673       12.0667969302
H                17.5751258345       12.8785126160       25.0610830883
H                14.9966206129       13.4408880203       26.2523833957
H                11.7361543359       11.5385217660       25.0029685695
H                 9.4890326748       11.5920876376       22.8757595721
H                13.4509757561       11.0690091290       18.7372554107
H                10.3860245225       13.2014339008       16.1037576683
H                13.5212328793       12.4944447558       12.8304703507
H                11.6881274437       16.1808705102       10.9569379486
H                14.3296116758       15.3495924080        9.0761806845
H                12.2008522642       26.2638584120       12.7281653222
H                14.0740257056       28.8916509979       15.1149393349
H                25.0062168677       26.2477518148       17.2343638340
H                24.8522076915       27.8361155461       14.1329978718
H                16.3499178038       25.8776872354       31.2189333487
H                21.4067349869       25.6658185267       31.2306512648
