 460 
 
N                34.3617807733       24.5211002259       83.6611670971
C                34.5459567787       25.1394433468       82.3602892400
C                33.6177854786       26.3433891680       82.1637151397
O                32.9831865107       26.8389192473       83.0857542514
C                34.2499919198       24.0050264758       81.3928245325
C                34.9240124477       24.0867933611       80.0201403212
C                32.7285286171       23.7836758418       81.3498915391
C                36.4239382142       24.3371519656       80.1407805102
H                33.6781116355       23.7821253581       83.6907261619
H                35.5781232171       25.5035857036       82.3231561042
H                34.7072780554       23.1250150712       81.8503435654
H                34.7793546054       23.1110268101       79.5467185487
H                34.4646538149       24.8107944515       79.3436276500
H                32.3129226662       24.1429286176       80.4124147463
H                32.5329796635       22.7172318651       81.4512184164
H                32.2224531678       24.2980761140       82.1564702986
H                36.8973437664       24.1754491086       79.1689135826
H                36.6424656035       25.3538180084       80.4450838601
H                36.8613291868       23.6426828388       80.8480504857
N                33.5658086778       26.8392062998       80.9194053309
C                32.4310899771       27.6309896390       80.4955036111
C                31.6278442882       26.8314596090       79.4690442150
O                32.0115525239       25.7601037077       79.0392591448
H                33.9865949123       26.2958502263       80.1802262113
H                31.8245034309       27.8577632894       81.3736908416
H                32.7712735833       28.5704645743       80.0420903587
N                30.4964510659       27.4114985550       79.0482620875
C                29.7902827835       26.9132311733       77.8835662198
C                29.3566862241       28.1629340039       77.1058392194
O                29.1705889800       29.2194950197       77.7137131988
C                28.6228289174       25.9796897339       78.2814003375
O                28.5347169043       24.9396264543       77.3353412393
H                30.2415902517       28.3441721932       79.3484755133
H                30.4945840494       26.3127874852       77.3005790845
H                28.8369262136       25.5899902272       79.2823997164
H                27.6802458440       26.5418136696       78.3292482748
H                28.0248558224       24.2116226179       77.7008123285
N                29.2417483358       28.0638372710       75.7940572853
C                29.0315665934       29.2095833099       74.9266337936
C                28.7728920084       30.5225429370       75.6465435885
O                29.6909532518       31.3242233001       75.7775118306
C                27.9543312944       28.7384109886       73.9129313515
C                27.7191689181       27.2631734130       74.2632020379
C                29.0068491870       26.8763164184       74.9991338397
H                29.9841947385       29.3738749140       74.4010633283
H                27.0446106036       29.3276559867       73.9513531921
H                28.3543383487       28.8267193513       72.9017415254
H                26.8744187873       27.1531411589       74.9409300875
H                27.5421738160       26.6449384272       73.3889880085
H                28.9012125202       25.9828505411       75.6049232420
H                29.8324050458       26.7423954184       74.2947400525
N                27.4937849940       30.7499793579       75.9895084106
C                26.9453613796       31.9859304344       76.5581385038
C                26.6270892897       32.9367888793       75.3833652033
O                27.2831332385       33.9365751252       75.1032196988
C                27.8140216977       32.6060053463       77.6899450390
O                28.9200506927       33.3759437356       77.2920178155
H                26.8562810434       29.9714725774       75.9345797054
H                25.9962242232       31.7216228018       77.0327423107
H                27.1732244951       33.2686157063       78.2748362531
H                28.1442455721       31.7766213929       78.3278183092
H                29.4449651352       32.7993627441       76.7128879070
N                25.5981267834       32.5284648779       74.6196556140
C                25.1396875440       33.4377639772       73.5748210840
C                24.7817865640       34.7661734977       74.2723371207
O                24.2152423228       34.7810207685       75.3343538109
C                24.0026624068       32.8520960903       72.7208865577
C                24.5471150050       31.7705125076       71.7854183596
C                22.8538541349       32.3142553080       73.5718320165
H                24.9121360965       31.8878623412       74.9859441872
H                26.0048975501       33.6224976585       72.9252741056
H                23.6195358832       33.6807704553       72.1170817242
H                23.7412925190       31.3623543416       71.1836523999
H                25.3002774458       32.1804142613       71.1180797973
H                24.9950878923       30.9621253513       72.3585782236
H                21.9713412378       32.1815867552       72.9495051023
H                23.0969376042       31.3442169737       74.0003897324
H                22.6015726035       33.0120617460       74.3667486571
N                25.2445927008       35.8655800696       73.6619346616
C                25.4513295498       37.1339966688       74.3448332350
C                24.1102255419       37.6709798597       74.8788849883
O                23.0841427299       37.5943353771       74.2136340486
C                26.0748783670       38.1427907725       73.3626978170
C                27.1174520810       39.1011137219       73.9447372299
C                28.3999311096       38.4153799624       74.4490688997
N                28.4306441561       38.2799201726       75.8961828924
C                28.6747767735       37.1969257666       76.6357588615
N                28.8658876082       35.9985153223       76.0886852820
N                28.7166443962       37.3257737293       77.9693951051
H                25.7227315501       35.7576121321       72.7784138480
H                26.1214712815       36.9417024244       75.1863122258
H                26.5606314765       37.5858111334       72.5595552356
H                25.2712696092       38.7298299672       72.9147136209
H                27.3958754045       39.7766007532       73.1366622097
H                26.6884442182       39.7266762310       74.7278483229
H                28.5117618924       37.4382122278       73.9846581145
H                29.2608981788       39.0254350963       74.1643922717
H                28.3916388630       39.1717419590       76.3843489880
H                28.6803021549       35.8232497511       75.1219480248
H                28.8985601633       35.1600108468       76.6629036189
H                28.7224707693       38.2122620506       78.4047560385
H                28.9736253054       36.5169291524       78.5242616950
N                24.1539015744       38.2903490821       76.0650204824
C                22.9584566534       38.8332599059       76.6831485593
C                22.0213984770       39.4915283691       75.7105213622
O                22.3907372036       40.3357078223       74.8978767038
C                23.5261771593       39.8434757229       77.6796662886
C                24.7089526345       39.0613793117       78.2495081136
C                25.2666900199       38.3469451867       77.0127006668
H                22.4163061363       38.0374447030       77.2174628063
H                23.8785313093       40.7227085088       77.1434351941
H                22.8009814755       40.1265666806       78.4412207780
H                25.4466017718       39.7069469635       78.7163529892
H                24.3475242283       38.3433640182       78.9845746179
H                26.0766466839       38.9319859900       76.5798115493
H                25.6130689850       37.3392334646       77.2602074658
N                17.5166162985       34.1720008864       80.8154451693
C                18.8953491059       34.1085195500       80.3756366106
C                19.7069513057       33.3408614041       81.4170027779
O                19.5743759872       33.5512983970       82.6134256359
C                19.5430758829       35.5018950811       80.2404444487
C                18.6376138715       36.5402094417       79.5865052318
C                19.4763698557       37.7187446953       78.9949022068
O                20.2073214083       37.4172676669       78.0210335211
O                19.3522617329       38.8483248115       79.4967639188
H                17.3340106455       34.6065435075       81.7112995410
H                18.8862542672       33.6065664528       79.4050228807
H                19.8318456969       35.8658790243       81.2304544475
H                20.4523555604       35.4038829496       79.6422976571
H                18.1023249970       36.0879517732       78.7451079457
H                17.9152135179       36.9364315215       80.2986517617
N                20.5621008893       32.4217195004       80.9630004916
C                21.4897869137       31.7883847636       81.8848011854
C                22.4190329000       32.8644999394       82.4585987502
O                22.8102445823       33.8063779515       81.8006995760
C                22.2763795650       30.7047197087       81.1457258325
C                23.2014510625       29.9530670305       82.0739805778
C                23.7276269431       28.6355825516       81.4893735924
N                24.4783625075       28.7967115986       80.2663819009
C                25.7324218862       29.2546754991       80.1669792343
N                26.3396435015       29.8542935918       81.1790695232
N                26.3336333313       29.2169643708       78.9666809409
H                20.8096150499       32.4240383623       79.9817181782
H                20.9074757387       31.3457034039       82.6952605589
H                21.5592042489       30.0087003006       80.7058121750
H                22.8563660110       31.1738840367       80.3453601864
H                24.0183116844       30.6118551449       82.3705793010
H                22.6515043295       29.6882890018       82.9862368610
H                24.3480359570       28.1296447206       82.2375657025
H                22.8861087739       27.9762037655       81.2795330966
H                24.0981751274       28.3127348859       79.4675867392
H                25.9558889232       29.8508337466       82.1069405626
H                27.3149617416       30.1048982957       81.1377990427
H                25.9277595756       28.6663060055       78.2284661361
H                27.3140332842       29.4550134721       78.8766767910
N                22.7764316985       32.6850502858       83.7350106851
C                23.7677940872       33.5530515079       84.3468332370
C                25.0087289186       33.4687311362       83.4627055537
O                25.4620643926       32.3730499051       83.1095563989
C                24.0504301816       33.0686492204       85.7591764842
C                25.1740866572       33.7527046581       86.4911505039
C                25.2145604723       35.1311096582       86.6903436349
C                26.1363347408       32.9789287276       87.1324581326
C                26.2145813011       35.7284368618       87.4384325027
C                27.1010276490       33.5561713575       87.9423558574
C                27.1639562612       34.9409663314       88.0885130298
O                28.1765654048       35.5332875944       88.7961880625
H                22.3778157856       31.9369227210       84.2940348430
H                23.3883896871       34.5735074222       84.3462531212
H                23.1374113474       33.2145490350       86.3473446175
H                24.2506148406       31.9957097356       85.7214446726
H                24.4204185081       35.7518665214       86.3112393094
H                26.1083147863       31.9043577856       87.0479328620
H                26.2360644403       36.7947015246       87.5720418417
H                27.7918502584       32.9151214258       88.4719866462
H                28.5797141672       34.8859498423       89.3859394472
N                25.5971859230       34.6065862990       83.1079010188
C                26.7188962462       34.5415568047       82.1799591405
C                27.8038139573       33.5701218732       82.6543874230
O                28.3813708718       32.8425540853       81.8546288524
C                27.2110358599       35.9949190802       82.0594037015
C                26.4843082913       36.7477275748       83.1761952976
C                25.1767739829       35.9825809584       83.3174934403
H                26.3780323803       34.1528859445       81.2159267628
H                28.2949495785       36.0584308457       82.1510451233
H                26.9344274906       36.3947112834       81.0861543137
H                27.0445727150       36.6903802252       84.1085831435
H                26.3250199646       37.7923538160       82.9259451010
H                24.7293352934       36.1269264358       84.2925074469
H                24.4591954422       36.2584968132       82.5360012419
N                27.6484862240       30.9430406659       84.5851236910
C                27.2601079926       29.6173928679       85.0062989855
C                28.0172711976       28.5520704250       84.2098231758
O                28.1589381956       28.6520504747       82.9882823189
C                25.7295186767       29.5201118233       84.9092763829
C                25.2010661230       28.0917068336       84.8845527277
C                25.4695218212       27.3815067911       86.2246007564
O                25.7308209920       26.1635674434       86.1764004622
O                25.4221640534       28.0659104734       87.2793774910
H                26.9888258907       31.4980570421       84.0431187625
H                27.5596561646       29.5011936583       86.0582345189
H                25.3096161842       30.0058094621       85.7945269877
H                25.3894194608       30.0699271948       84.0321719697
H                24.1178655153       28.1181831069       84.7453478846
H                25.6496882925       27.5025348264       84.0834909955
N                28.4743599786       27.5116715390       84.9017541337
C                29.3830697381       26.5330112462       84.3509784322
C                28.9220954704       25.0702365803       84.3742270645
O                29.5924421265       24.2116577625       83.8113888016
C                30.7842890611       26.5554277631       85.0439350513
O                30.8072046730       25.7268693681       86.1866579349
C                31.2448974412       27.9732804917       85.3319014543
H                28.3478711476       27.4987716580       85.9048425905
H                29.5256001879       26.8169199244       83.3033165516
H                31.4772451791       26.0928783338       84.3338975340
H                30.8371700006       26.2912224652       86.9689927990
H                32.2984780068       27.9560829695       85.6022692263
H                31.1348806008       28.5923060593       84.4517447589
H                30.6725244342       28.4258771782       86.1377910955
N                27.8139857396       24.7713282706       85.0464798596
C                27.3046926793       23.4247223015       85.1262475437
C                26.0657990282       23.2339929652       84.2510650121
O                25.9324406106       22.2420113026       83.5517241445
C                26.9695123310       23.0369643203       86.5745504677
C                26.3902436926       21.6465621366       86.6733269344
C                27.1094011969       20.5394296561       86.2368865911
C                25.1251581966       21.4394173549       87.2068351586
C                26.5693416412       19.2667558635       86.3058475441
C                24.5966671946       20.1639544531       87.3126474834
C                25.3093093596       19.0738083220       86.8501645103
H                27.2599577333       25.4841959744       85.5121225871
H                28.0878260574       22.7631516408       84.7445185434
H                27.8888946821       23.0977558596       87.1641285792
H                26.2663383968       23.7670885518       86.9796588532
H                28.1051616851       20.6724287217       85.8434043159
H                24.5562681672       22.2846126233       87.5739293752
H                27.1251311953       18.4196964738       85.9317135008
H                23.6251455964       20.0246100371       87.7653946607
H                24.8953862506       18.0810297227       86.9312661693
N                25.1622443904       24.2088453942       84.3235091510
C                23.9205926523       24.1077549658       83.5889496016
C                24.1077932682       24.3832332121       82.0944275438
O                24.8847501302       25.2377512472       81.6586263322
C                22.9245448191       25.1423364588       84.1204434353
C                22.4499264200       24.8598867445       85.5507757914
C                22.0801902716       26.1665176680       86.2412013765
C                21.2647957686       23.9027258061       85.5399963048
H                25.3359311664       25.0102772050       84.9182968775
H                23.5506128476       23.0857959090       83.7236078632
H                23.4301667957       26.1071247511       84.0779332340
H                22.0677989728       25.1920244667       83.4452129348
H                23.2749950326       24.3997725657       86.1053433504
H                21.7059640566       25.9803147853       87.2423857590
H                22.9480646811       26.8154024797       86.3273041199
H                21.3151865670       26.6931088208       85.6737753319
H                20.9455671923       23.6779984798       86.5559204359
H                20.4238573859       24.3447674229       85.0053418840
H                21.5248073846       22.9638930033       85.0599271688
N                23.3102130396       23.6966237809       81.2858128137
C                23.2083522949       24.0806009459       79.8703001722
C                22.4118617344       25.3942718081       79.7486918968
O                21.8680963132       25.9233547523       80.6791912599
C                22.4459653502       22.9228793587       79.1999620168
C                21.5490142133       22.4298385378       80.3422821189
C                22.3885990705       22.6298543818       81.6262222542
H                24.2217320836       24.2179246055       79.4897044966
H                21.8760085678       23.2491121035       78.3453841194
H                23.1458876549       22.1391595873       78.9082791099
H                20.6565399852       23.0512555386       80.4036179507
H                21.2571043244       21.3913481674       80.2187102019
H                21.7454409092       22.9069813790       82.4579154208
H                22.9530885261       21.7294288662       81.8775221262
N                22.3370047314       25.8938175290       78.5094800876
C                21.5125451677       27.0614668637       78.2274520226
C                20.2094280576       26.5678196855       77.5600183361
O                20.0455919986       25.4065293415       77.2324428401
C                22.3748098250       27.9359276585       77.2959613848
C                23.5934729656       27.0460387724       76.9706932199
C                23.1316653106       25.6254007936       77.3392367690
H                21.2499388572       27.5308971457       79.1725976635
H                21.8210327494       28.1611742638       76.3799792693
H                22.6543657577       28.8683601992       77.7663776138
H                23.8713772498       27.1082120848       75.9148460061
H                24.4522391032       27.2999723773       77.5800147459
H                22.4898562878       25.2079128134       76.5564444624
H                23.9523656199       24.9455470588       77.5316387613
N                19.2557120110       27.5266401195       77.4347728187
C                17.9350735017       27.1992710106       76.9333979419
C                17.8296174532       27.4151812113       75.4343652779
O                18.4946542134       28.2306158023       74.8105721917
C                16.8550826645       28.0353534428       77.6306012539
C                16.5173462786       27.5460649479       79.0465117341
C                15.8882412341       28.6946303583       79.8220385087
C                15.5608914082       26.3620303885       78.9995235578
H                19.5191388811       28.4906808430       77.4620043638
H                17.7917790490       26.1331120785       77.1441199716
H                17.1961481848       29.0743985908       77.6504211337
H                15.9494501873       28.0222537803       77.0231458040
H                17.4458953190       27.2362516638       79.5339810924
H                15.6741996546       28.3861243243       80.8439862459
H                16.5629243903       29.5450223680       79.8660268886
H                14.9671252344       29.0203010359       79.3487046693
H                15.3900096582       25.9633153697       79.9952491691
H                14.6037160652       26.6766358652       78.5856265874
H                15.9519551838       25.5555888570       78.3814167332
N                15.2720435597       21.4184897842       80.1305676142
C                16.6433185987       21.0038693318       80.3251323587
C                16.7161410060       19.4828022434       80.5674430226
O                15.7439394199       18.7717828306       80.7548375913
C                17.2740175671       21.7904479832       81.4701277230
C                17.2377293762       23.2913679058       81.2073832013
S                18.2251987318       24.1840409198       82.4863489905
C                17.1297024075       25.5555603253       82.8895738356
H                14.6668304839       21.2435022428       80.9279750522
H                17.1623175321       21.2139328579       79.3809960663
H                16.7167019155       21.5690443859       82.3865683818
H                18.3070780306       21.4714097685       81.6172239854
H                17.6645068004       23.5233578214       80.2336486580
H                16.2177912471       23.6646262055       81.2594065582
H                17.5097445374       26.0125932686       83.7937257296
H                17.1470125336       26.2802778989       82.0781131387
H                16.1323297706       25.1625814317       83.0389623850
N                17.9650100119       18.9678018850       80.5003673615
C                18.1718386198       17.5916623964       80.0782419581
C                18.4906652182       16.6790126184       81.2674609677
O                19.5847100287       16.6691103492       81.8015859935
C                19.2563933910       17.5418359481       78.9769439278
C                20.6367303958       17.9905501533       79.4553753888
C                19.3329196138       16.1330212573       78.3944984114
H                18.7355471402       19.5979124062       80.3328804802
H                17.2200720545       17.2592496301       79.6431241958
H                18.9168931933       18.2270156207       78.1919049870
H                21.3032813582       18.0758924378       78.6027204509
H                20.6032359561       18.9529686318       79.9581720472
H                21.0458360996       17.2629660877       80.1499174479
H                20.0454518180       16.1109684090       77.5735789468
H                19.6653806520       15.4311584606       79.1543073985
H                18.3665795845       15.8114017675       78.0169575672
N                17.3030555199       35.5422545639       85.3812320209
C                18.5037234913       34.7827083258       85.1373114598
C                18.3602442402       33.4562234193       85.8375064971
O                17.5851618006       33.3667494656       86.7898949549
C                19.7154052074       35.5902210861       85.6356932764
O                19.6485003456       36.8923502970       85.0982712087
C                21.0247002259       34.9068720599       85.2911438843
H                17.0667822244       35.7585214623       86.3413586646
H                18.5971346624       34.6335863724       84.0571263623
H                19.6522906932       35.7284369534       86.7216663035
H                19.7281948380       36.8401036033       84.1371963367
H                21.8330694236       35.5137168979       85.6958215201
H                21.0728605301       33.9300658491       85.7517293553
H                21.1155277592       34.8132428299       84.2115538604
N                19.0763295084       32.4308281195       85.3790342020
C                19.1229480071       31.2133841120       86.1439902348
C                20.5598713869       30.7671406202       86.3486978135
O                21.4017816316       30.8738223778       85.4682007704
C                18.2296073335       30.1269956037       85.5517991143
C                18.7020449810       29.6188409743       84.2386783310
C                18.4373775263       30.3668286710       83.1024407393
C                19.3829487931       28.4115800943       84.1188383264
C                18.8174164229       29.9142001535       81.8587730285
C                19.7768553230       27.9513809688       82.8829876498
C                19.4696341538       28.6932608303       81.7447540110
O                19.7897491377       28.1905602660       80.5175103604
H                19.6251322598       32.5336686999       84.5381221311
H                18.7105119703       31.4586736990       87.1363416746
H                18.1772488490       29.3086923861       86.2782586887
H                17.2329964057       30.5575953755       85.4512034624
H                17.9113012843       31.3065472889       83.1884883082
H                19.5821762978       27.8283156807       85.0037178864
H                18.5817147915       30.4937559504       80.9770976864
H                20.2953081223       27.0138615805       82.7543816772
H                19.3428059107       28.7305804732       79.8451517846
N                31.8310376817       20.3569896403       78.5823514680
C                30.5919357115       20.0087829702       77.8918610679
C                30.8078044433       19.0623524053       76.7138685580
O                31.7380618045       19.1683404861       75.9241924514
C                30.0448634583       21.3473125200       77.3604967600
C                30.6049398027       22.3625647112       78.3444941376
C                31.9913222957       21.8029750757       78.6330373462
H                29.9006075534       19.5407529434       78.6008253436
H                30.4475119176       21.5232284620       76.3599823624
H                28.9626263678       21.3338766121       77.2656681166
H                30.6424885524       23.3667339890       77.9402674890
H                29.9954395252       22.3641766559       79.2514024706
H                32.6854294130       22.1354895694       77.8527397650
H                32.3761103649       22.0997378481       79.5986091146
N                31.2761376368       20.9484441576       72.8322780710
C                32.1264478556       22.1256796415       72.8042999733
C                33.1143822930       21.9281088128       71.6517705061
O                33.6531292933       20.8265148899       71.4834985370
C                32.8991725708       22.2824452504       74.1244102753
C                33.3359252689       23.7205062768       74.4081866696
C                32.1249154349       24.6304401574       74.6290129410
C                34.2409439675       23.7371070583       75.6398929063
H                31.7457435328       20.0556044566       72.8205158111
H                31.4745702703       22.9788558340       72.6259477639
H                32.2527619476       21.9248684535       74.9282842923
H                33.7713415952       21.6280390027       74.0910382416
H                33.9046033213       24.0846577517       73.5472530320
H                32.4350070693       25.5686845674       75.0755069062
H                31.6267391022       24.8437456414       73.6879658509
H                31.4030373631       24.1494193236       75.2864166421
H                34.5925132722       24.7500144989       75.8289523268
H                33.6899729323       23.3976899613       76.5060952480
H                35.1038360963       23.0956901887       75.4886552431
N                36.6703382497       26.5357827795       70.4669774183
C                36.1737066112       27.1269539820       71.6962513012
C                37.1369482019       26.7605568369       72.8283713656
O                37.5560544635       27.5981181405       73.6291409627
C                34.7658151771       26.6232823153       72.0095528756
C                33.6891556334       27.3318654125       71.1831914658
C                32.3375696152       26.6174383946       71.2332185775
O                32.1860601268       25.4274511524       71.5065791562
N                31.2876313762       27.3872819943       70.9210213409
H                36.0900374359       25.8394771064       70.0099575728
H                36.1868685442       28.2190162581       71.6044223876
H                34.7320182174       25.5486303480       71.8188464374
H                34.5626162728       26.7758571439       73.0709919737
H                33.5663783576       28.3554006647       71.5250703261
H                34.0023492557       27.3489450929       70.1363125718
H                31.3849589027       28.3675400441       70.7113660798
H                30.3723843255       26.9685750880       70.8977412824
N                39.4819852376       29.0101327999       75.3936279769
C                39.3684340290       29.0488007463       76.8419157323
C                40.7457849841       28.8024269516       77.4852877172
O                41.0841329882       29.3544372898       78.5158413238
C                38.3300355264       28.0669306958       77.4108336995
C                36.9861308971       28.1863525430       76.6863883793
C                38.1554712896       28.3577721317       78.8939982857
C                35.9659422938       27.1612495217       77.1723372123
H                38.9600970876       28.3175718656       74.8756012068
H                39.0790324336       30.0723690467       77.1270439041
H                38.7217064474       27.0522066739       77.2637466859
H                36.5880311658       29.1930267639       76.8364256072
H                37.1208622697       28.0465117036       75.6160974769
H                37.6461219439       27.5336397820       79.3884139035
H                39.1183869518       28.4999684925       79.3762102647
H                37.5696114417       29.2617404269       79.0329236470
H                35.0757720144       27.1944822561       76.5500819370
H                36.3832422313       26.1570175882       77.1242281345
H                35.6667209068       27.3581157364       78.1974492691
H                35.1398399106       24.1616736791       83.9358242224
H                21.0517129411       39.2471973886       75.7070094475
H                17.0323951987       34.6411504883       80.2192668591
H                28.0461350465       33.5257574399       83.6235686686
H                27.8291211279       31.4472081873       85.3084397643
H                17.1856083279       26.8725256153       74.8951277137
H                15.2458402763       22.3034269261       79.9687045768
H                17.7887426376       16.0654009893       81.6291036913
H                17.3633572298       36.3400912092       84.9691393236
H                20.8411098449       30.3726360333       87.2234955390
H                31.7798447264       20.0949827626       79.4418464810
H                30.1710645311       18.3076902635       76.5556050565
H                30.7783214964       20.9551652894       73.5820339758
H                33.3234216756       22.6882397987       71.0365441894
H                36.7933543199       27.1809420245       69.8516428792
H                37.4459495850       25.8155788610       72.9357714133
H                39.2112701492       29.7966428470       75.0499489307
H                41.3929476670       28.1727459455       77.0555409402
