 105 
 
N                60.5077836070       87.8194552221       94.1653717068
C                61.7412191878       87.5821220023       94.8818901355
C                62.1293128962       88.6523449592       95.8882968903
O                62.7639682650       89.6149614870       95.5550536339
C                62.9223929819       87.1721104841       94.0025936479
C                62.9579470142       85.8569768411       93.3757399085
C                64.0583305964       85.5690090443       92.4985934660
C                64.1706413081       84.2543817354       91.8785979206
N                65.3719467840       83.9414444755       91.3352616402
H                59.8042082920       87.3157362595       94.3708726155
H                61.5037124624       86.6703934820       95.4752989837
H                62.9459217636       87.9087962588       93.2274508562
H                63.8105663476       87.3259749930       94.5349873395
H                62.9180670988       85.1025042605       94.1452240940
H                62.0385513820       85.6826911850       92.8412994774
H                64.1028389646       86.3291463562       91.7351083448
H                64.9828059281       85.7562279967       93.0402774389
H                63.8911457216       83.5134428391       92.6004919650
H                63.3893413927       84.1571877588       91.1373788518
H                65.4548690667       83.0098169136       90.8855438855
H                65.6701284964       84.5892683787       90.5784751888
H                66.1573441460       83.9668095167       91.9966999930
N                61.2430463650       84.7655980159       99.3604342650
C                59.7926740911       84.4478045622       99.0106304558
C                59.5163568654       84.9071401550       97.5844368748
O                60.0235222155       86.0515347265       97.2485416033
C                58.9455419082       85.2935770608       99.9806533287
O                59.2697415748       86.6578155979      100.0630165501
C                59.2328626380       84.6095783587      101.3027316679
H                61.4379633277       85.5921500331       99.4576429026
H                59.6422262389       83.7134134419       99.0366048176
H                57.9941923002       85.2294507943       99.7350181235
H                58.4625140834       87.0801058902      100.2100632623
H                58.4263233882       85.1896115167      102.0333826695
H                58.8609685557       83.7683071724      101.4062853186
H                60.0433158967       84.7694833942      101.6160492996
N                58.8879647547       84.2424469925       96.7622823482
C                58.6922226004       84.4499612631       95.4024416028
C                57.2760943721       84.6532271741       95.0488582163
O                56.6021204072       85.6978099911       95.4178145898
C                59.3199746072       83.4609424298       94.6074818743
O                56.6882691456       83.6513062021       94.3765862925
H                58.4836988004       83.4258331413       97.0941331548
H                59.1446411097       85.4018817809       95.1826716060
H                59.2035909481       83.6351046983       93.5367140127
H                60.3661779937       83.3876024549       94.7601365034
H                58.9142102521       82.4962917893       94.7717575300
N                57.5942587578       78.1210080543       89.6566743878
C                57.4879319202       79.4682236130       89.3292369628
C                56.5146423295       79.7990092673       88.2205738306
O                55.9049233561       80.8386720150       88.1636507203
C                58.7941309703       80.1741946296       89.1575799081
C                59.5402404504       80.5753516553       90.2981411855
C                61.0399030017       80.4267078732       90.2565262005
O                61.5328458708       80.4018206736       89.1101373081
O                61.6872803199       80.3201185167       91.3288733699
H                58.4191330796       77.7095834093       89.3743143419
H                57.0299658434       79.9266032881       90.2180670479
H                59.4146197323       79.5191437840       88.5659805568
H                58.6605250852       81.0138083757       88.4935058792
H                59.3054147703       81.5974922730       90.5638634567
H                59.1711766243       80.0373640567       91.1608873154
N                56.2518945250       80.2498507228       95.7271356596
C                57.1253060015       79.4592757432       96.3033975917
C                58.0279787786       80.1149523161       97.3239971235
O                57.8010335814       81.4564285048       97.4962281728
C                58.2521559268       79.0757497703       95.0311534602
O                59.0810089574       80.3250293711       94.7271185354
C                57.4803112475       78.7299492653       93.7946008302
H                56.4077636873       81.0965279241       95.5287034344
H                56.9661493311       78.6924407566       96.5729263380
H                58.8614352386       78.5013852129       95.2635754654
H                59.5900087640       80.1031044874       94.0808302620
H                58.1030232312       78.4803301854       93.0933121949
H                56.9817098887       77.9171515707       93.9699978640
H                56.9411572127       79.4195502142       93.4712817634
N                58.9779787097       79.5465722502       97.9767416517
C                59.7818879751       80.3138940594       98.9905945530
C                61.0659090455       79.4536175054       99.0754516381
O                60.9994940820       78.1097120844       98.7986514548
C                59.0711315702       80.3890557549      100.3373818043
C                59.2717774133       79.4394999826      101.4517013862
C                58.2006511337       79.7284917636      102.5724099027
C                58.3183940283       78.6686525151      103.7638799216
N                57.2854420719       78.9132871105      104.7728629100
H                59.0920106198       78.7684006589       97.8081841751
H                60.0730332009       80.9092481795       98.6762478610
H                59.1933634972       81.1651712407      100.7010217121
H                58.0999762585       80.4731103823      100.1260033958
H                59.1153715990       78.5501518499      101.1257337683
H                60.1383906279       79.5296915754      101.7957766081
H                58.3583828585       80.6167324142      102.9317264300
H                57.3266802299       79.7036260023      102.2199815866
H                58.2597646971       77.7968950941      103.3720908338
H                59.2110591610       78.7555526876      104.1289262414
H                57.4366392152       78.2976785567      105.4350830871
H                57.3708168878       79.6296402824      105.2039468832
H                56.4864050958       78.8088895937      104.4081975007
H                56.0242997208       79.9118466115       94.9246683233
H                61.9353736984       79.8768338862       99.3302439306
H                60.2381382535       88.6668603177       94.3039212909
H                61.8556414374       88.5610893816       96.8457812777
H                61.4583333172       84.3683539517      100.1387970864
H                57.5434178757       78.0240333227       90.5499890615
H                56.3504734456       79.1403012339       87.4863039181
