 225 
 
N                34.8590753916      -10.1915729082      -29.8018184241
C                34.6607024035       -8.7453693906      -29.4356596352
C                34.0104223953       -8.5910360063      -27.9965152169
O                34.7520751029       -8.6068419083      -27.0299826019
C                33.9808865853       -8.0086799646      -30.5999431899
C                34.0426756766       -6.4929181274      -30.4296016664
S                33.2588383558       -5.6765769495      -31.8651725952
C                31.9217064732       -4.6992506595      -31.1317689140
H                35.5478791656      -10.2738929574      -30.5666239592
H                35.2140295577      -10.7150265111      -28.9849983067
H                33.9759635962      -10.6380316944      -30.0969199242
H                35.6562758479       -8.3148732431      -29.2799031228
H                34.5057524539       -8.2565272806      -31.5245387548
H                32.9407915974       -8.3134017708      -30.7299615638
H                33.5468176101       -6.1680337070      -29.5174512201
H                35.0794868289       -6.1571423247      -30.3975776624
H                31.7163555300       -3.9069708334      -31.8462263144
H                31.0492310583       -5.3297184425      -31.0342234110
H                32.2478211716       -4.2746602376      -30.1913256692
N                32.6715044244       -8.4385031506      -27.9902777412
C                31.7538871447       -7.7991266260      -27.0242911152
C                31.6852790192       -8.4005517226      -25.5546052892
O                32.4049470671       -7.9361972615      -24.6826975180
C                30.3753753149       -7.6889790069      -27.7313230671
C                30.3160352015       -6.7176142118      -28.9417036010
C                29.1011175971       -7.0267064075      -29.8220593575
C                30.2774434394       -5.2671524126      -28.4569926895
H                32.2033159117       -8.6208788376      -28.8690259186
H                32.1571480282       -6.7959053301      -26.8261911813
H                30.0862799968       -8.6901605723      -28.0597135076
H                29.6438115611       -7.3572022787      -26.9938192531
H                31.2155871051       -6.8672317948      -29.5422001492
H                29.0842011864       -6.3780279349      -30.6933387134
H                29.1229895242       -8.0578150005      -30.1681785839
H                28.1786181728       -6.8737289785      -29.2689216164
H                30.0453529959       -4.5788749831      -29.2614216772
H                29.5112692631       -5.1521850564      -27.6940345085
H                31.2279770335       -4.9786528357      -28.0128102299
N                30.7227692627       -9.3169546318      -25.3055819791
C                30.2506430964       -9.7211169693      -23.9775529110
C                30.2910742690      -11.2753343306      -23.8170212780
O                29.3573329717      -11.9911876559      -24.1619354461
C                28.7903975220       -9.2412476933      -23.7434617457
C                28.5539143694       -7.7176617987      -23.7858843186
C                27.0521730910       -7.3811079759      -23.8357666885
C                26.7886908975       -5.8727005139      -23.8935269492
N                25.3234758488       -5.5997165209      -24.0079490007
H                30.1749234689       -9.6898958206      -26.0679792243
H                30.9304018669       -9.2711271503      -23.2504236233
H                28.1643624619       -9.7431324478      -24.4855088732
H                28.4942538821       -9.6213725633      -22.7645017541
H                29.0164535895       -7.2785464853      -22.9049948295
H                29.0557296848       -7.3045836501      -24.6629132821
H                26.6289701060       -7.8637285948      -24.7182652086
H                26.5829129093       -7.8119599274      -22.9509864428
H                27.1738037630       -5.3940460527      -22.9932844665
H                27.2942999539       -5.4438121305      -24.7588436596
H                25.1364402537       -4.5883474252      -24.0570402199
H                24.9459531388       -6.0561121182      -24.8522753057
H                24.8351133980       -5.9896299093      -23.1872830194
N                31.4088906687      -11.7643745780      -23.2696043765
C                31.5897704367      -13.1609942316      -22.9072658899
C                31.7946387041      -13.1825739475      -21.3760949541
O                31.1081649334      -12.5011159801      -20.6320972670
C                32.7249155717      -13.7703685273      -23.7325776247
C                32.4475965317      -13.7385985659      -25.2340972019
C                33.6837197716      -13.2036363310      -26.0271681938
O                34.4384155589      -12.4063286737      -25.4355271709
O                33.8020265249      -13.6053379327      -27.2032758905
H                32.1613451695      -11.1378864232      -23.0155648815
H                30.6428601574      -13.6687889612      -23.1352647116
H                33.6307692076      -13.1761231689      -23.5655264982
H                32.9012166552      -14.8053527467      -23.4424069302
H                32.1832133426      -14.7191330976      -25.6301132109
H                31.6280019430      -13.0546274904      -25.4665810846
N                32.8191737320      -13.9411821020      -20.9291312672
C                33.2206422354      -13.9625861656      -19.5291556466
C                34.6536810722      -13.4125009680      -19.3124654166
O                34.9588383331      -12.8204003286      -18.2887976363
C                33.0731954239      -15.3809866563      -18.9342704036
C                33.1689488185      -15.4203456568      -17.4291051725
C                32.3043731661      -14.6732294784      -16.6353914543
C                34.0822972351      -16.2589071687      -16.8087146486
C                32.3210507999      -14.7831342443      -15.2562122262
C                34.0892553409      -16.3791748767      -15.4305623614
C                33.1998452139      -15.6603085103      -14.6491012574
H                33.1663619923      -14.6776022692      -21.5235712805
H                32.5458450996      -13.2817235561      -19.0004514278
H                32.0871951330      -15.7516591987      -19.2302774406
H                33.8305882866      -16.0361298807      -19.3692666483
H                31.5767433270      -14.0244282569      -17.1020045994
H                34.7777792664      -16.8384994687      -17.3976551075
H                31.6277776306      -14.2093777876      -14.6602699332
H                34.8019210402      -17.0396609612      -14.9578532959
H                33.2069845112      -15.7751706276      -13.5756551490
N                35.5411867082      -13.6588346786      -20.3090919239
C                36.9015261385      -13.1484094546      -20.2843568695
C                37.0249863457      -11.7037953357      -20.8273435842
O                38.1026417670      -11.1377486077      -20.7252435082
C                37.8867136210      -14.1187896924      -20.9796178981
C                39.3078751004      -13.9597063594      -20.4269561741
C                40.3757924475      -14.4368386235      -21.4091864500
C                41.7287905505      -13.8320301912      -21.0512389441
N                42.7236302811      -14.0766941166      -22.1321779543
H                35.2283223682      -14.0974391610      -21.1627082711
H                37.1698596736      -13.0702485686      -19.2231418312
H                37.5290171514      -15.1328928766      -20.8034665143
H                37.8577251786      -13.9382558055      -22.0568221708
H                39.4568963119      -12.9050276226      -20.2021275638
H                39.3784674279      -14.5069559038      -19.4883711296
H                40.4242435324      -15.5252300258      -21.3828018079
H                40.0801965177      -14.1466185635      -22.4176575517
H                41.6433733219      -12.7617372886      -20.8790729980
H                42.0987446830      -14.2880998856      -20.1318695893
H                43.6216761362      -13.6159280083      -21.9160131655
H                42.8960846733      -15.0916499837      -22.2047811772
H                42.3925551703      -13.7587773501      -23.0556866755
N                35.9306050404      -11.1418140556      -21.3771263199
C                35.7769008276       -9.7551248476      -21.8372372833
C                34.3002169780       -9.3862130404      -21.6576321318
O                33.4529217497      -10.0405829580      -22.2511008068
C                36.1166668185       -9.6198933440      -23.3422340172
C                35.9925958725       -8.1858966289      -23.8841059542
C                37.3453760011       -7.4537667748      -24.2604801907
O                38.4081767418       -8.0988257117      -24.1945027146
O                37.2527580683       -6.2569945348      -24.5940787038
H                35.0972794903      -11.6992250683      -21.5054696836
H                36.4313204228       -9.1186151509      -21.2346458086
H                37.1484978875       -9.9435954797      -23.4917602271
H                35.4599810545      -10.2930041819      -23.8993176248
H                35.3903877589       -8.1815914413      -24.7940931201
H                35.4682530174       -7.5401626544      -23.1738942038
N                33.9724924380       -8.3754590034      -20.8265314171
C                32.5744910207       -8.0907177179      -20.5535932158
C                31.9645420380       -6.9736313260      -21.4419848199
O                30.7656457354       -7.0275885639      -21.6397040014
C                32.2411013618       -7.7763127197      -19.0740588780
C                32.0127343186       -8.8940059247      -18.0613434005
C                32.7591353733       -8.9045166538      -16.8859527279
C                30.9385855753       -9.7768190680      -18.1572000124
C                32.4246957691       -9.7345008460      -15.8316393244
C                30.6051229910      -10.6133506305      -17.1044080363
C                31.3386626944      -10.5840772379      -15.9315444031
H                34.6824823671       -7.8691353894      -20.3172868591
H                32.0282205904       -8.9988095393      -20.8434100804
H                33.0083460879       -7.1053867257      -18.6839540425
H                31.2990864383       -7.2202465595      -19.1062920569
H                33.5988003160       -8.2326574449      -16.7796605826
H                30.3294661709       -9.7814136762      -19.0505794435
H                33.0089777121       -9.7050059061      -14.9241171466
H                29.7411319875      -11.2574517471      -17.1846976016
H                31.0665997082      -11.2087410164      -15.0940700557
N                32.7538486646       -5.9529033370      -21.8606859683
C                32.3695559691       -5.0107531116      -22.9371825201
C                33.3093028436       -3.7959533366      -23.1850104841
O                33.3496850181       -3.3612919319      -24.3253298202
C                30.9763288015       -4.3910094831      -22.7560009734
H                33.7508540933       -6.1127254896      -21.8113468888
H                32.3891882038       -5.5788481180      -23.8774644623
H                30.7912436233       -3.7233722431      -23.5923905222
H                30.2227979808       -5.1689917252      -22.7280126809
H                30.9375175900       -3.8241469007      -21.8288449620
N                33.9026929514       -3.2307200243      -22.1029401245
C                34.8438279861       -2.0891519428      -22.0218153792
C                35.7440170819       -2.2575960523      -20.7256427953
O                36.1376088480       -3.3670474534      -20.3828113111
C                34.1387317296       -0.7169005176      -22.1067928000
C                33.3402392585       -0.4258053751      -23.3916990311
C                32.6288768333        0.9194775359      -23.2172784226
C                34.2266204529       -0.4096132664      -24.6383805863
H                33.7948339153       -3.7303668783      -21.2289623034
H                35.5292375113       -2.1683650694      -22.8757250532
H                33.4683931486       -0.6057275978      -21.2514672135
H                34.9185894339        0.0451402635      -22.0503433466
H                32.5821678135       -1.2011829032      -23.5297388153
H                32.0156514521        1.1334127484      -24.0887707670
H                31.9862109404        0.9067852081      -22.3408509618
H                33.3570331743        1.7202464847      -23.1077455560
H                33.6534985712       -0.0586015858      -25.4924829926
H                35.0853951261        0.2454566306      -24.5020358972
H                34.5810123576       -1.4096472469      -24.8680738661
N                41.3618200390       -1.8576440172      -27.5233061691
C                41.1844907996       -3.0464082207      -26.6912732856
C                41.1886011866       -4.3268924892      -27.5626999728
O                40.1862905756       -4.6349982251      -28.2024870732
C                39.8280491680       -3.0764800034      -26.0000895017
C                39.6287656200       -1.8974057781      -25.0913386622
S                38.2686892931       -2.2830493761      -23.9950525106
C                39.0467509431       -3.5150823101      -22.8868320448
H                40.5540003056       -1.5716274689      -28.0616914456
H                41.9989773272       -3.0373174094      -25.9609170027
H                39.0397156399       -3.1056951729      -26.7569006427
H                39.7526007244       -4.0097543538      -25.4375175342
H                40.5157192098       -1.6542940312      -24.5018316092
H                39.3171283687       -1.0078026485      -25.6366927408
H                38.3438212968       -3.6306228664      -22.0689279838
H                39.1570789476       -4.4676834512      -23.3967948001
H                39.9917393732       -3.1086788403      -22.5482208906
N                41.5385379750       -8.5654292882      -27.9298247538
C                41.5578457086       -9.8369352946      -27.2083570767
C                42.4638101373      -10.7443598980      -28.0761402432
O                42.3520512936      -10.7311486327      -29.2995260592
C                40.1554423232      -10.3910497913      -26.8850478302
C                40.1037244060      -11.3171298165      -25.6599571590
C                40.2789184404      -10.5214502922      -24.3633749599
C                40.2327491242      -11.3972273618      -23.1117709594
N                40.4856550886      -10.5467761463      -21.9082795624
H                41.6350498415       -8.6754150014      -28.9324561052
H                42.0809594592       -9.6408507258      -26.2662196502
H                39.5152171812       -9.5268041995      -26.6933682174
H                39.7771386382      -10.9131568273      -27.7657623792
H                39.1301659778      -11.8061341897      -25.6554573923
H                40.8745964847      -12.0872538361      -25.7509892178
H                41.2371287840       -9.9995022044      -24.4020103146
H                39.5075714329       -9.7517049607      -24.3257208446
H                39.2467450850      -11.8537424058      -23.0257719802
H                40.9862257067      -12.1836403699      -23.1689639122
H                40.3116009444      -11.0583014618      -21.0307345746
H                41.4555046590      -10.2061664306      -21.9165370667
H                39.8561937765       -9.7300146104      -21.9611541701
H                35.9937363462       -1.4558367557      -20.1826673637
H                41.5775337621       -1.1559604930      -27.0026260164
H                42.0062603153       -4.9011291039      -27.6037591949
H                40.7579896882       -8.1445914934      -27.7760719572
H                43.1387260101      -11.3400779510      -27.6406995861
