 155 
 
N                19.5266055783       41.5188164292        8.0952451778
C                20.3511469826       41.2999438270        6.9262494403
C                20.5737204211       39.8004501988        6.7543832759
O                21.0492693529       39.1339026277        7.6893927089
C                21.7274771541       41.9775355951        7.0907894380
C                22.6544306590       41.7074997166        5.8870783147
C                23.9345358452       42.5484076258        5.8897615663
C                24.6831888926       42.4970764232        7.2032777370
N                25.9746018067       43.2210212393        7.1156884025
H                19.9617769091       41.5191051154        9.0050752619
H                19.8149972285       41.7007262414        6.0636024261
H                21.5689844863       43.0493525981        7.1972868748
H                22.1800922642       41.5830271071        7.9997076014
H                22.9103610505       40.6469805485        5.8758253888
H                22.1071647170       41.9140483342        4.9687267304
H                24.5812551377       42.1913420550        5.0885847940
H                23.6689230353       43.5834427900        5.6717686845
H                24.0923325911       42.9723727571        7.9872045850
H                24.8886184226       41.4632228497        7.4834871168
H                26.4372861119       43.2239967425        8.0314663986
H                26.5956004247       42.7536762335        6.4244425505
H                25.8043311407       44.1830611504        6.7759791754
N                28.5326459209       41.7602679679        3.5980002897
C                28.0690837980       42.7901005929        2.6832558602
C                27.4479593973       43.9400204235        3.5137567419
O                27.1892196610       43.7930644919        4.6908511235
C                27.0993531451       42.2955975538        1.5939165953
C                25.8079947215       41.6928557882        2.1183631142
C                25.6316520773       40.5292791908        2.8193799632
C                24.5102778223       42.2512038205        1.9499401179
N                24.2978213069       40.2724150997        2.9951665051
C                23.5873666321       41.3118921212        2.4782775958
C                24.0764579352       43.4259217916        1.3508858230
C                22.1995335666       41.5047921726        2.3801721532
C                22.7153910316       43.6427674513        1.2714199251
C                21.7994435397       42.6604396812        1.7325722865
H                28.0788974577       41.7082122509        4.5071346217
H                28.9534814232       43.1840817331        2.1697826364
H                26.8606527878       43.1344817887        0.9457082853
H                27.6328470534       41.5406266869        1.0126710719
H                26.3654842784       39.8182623265        3.1474852532
H                23.8743598761       39.4607045729        3.4194290447
H                24.7714186926       44.1607373763        0.9761985260
H                21.4941502014       40.7744883840        2.7399358019
H                22.3145204318       44.5356396380        0.8204864690
H                20.7436647396       42.8572444209        1.5978966879
N                27.2203564392       45.0619449281        2.8437162509
C                26.6619622782       46.2229262809        3.5176763386
C                25.3761889123       46.6541376430        2.7975329294
O                25.4090725877       46.9657717112        1.5925452982
C                27.5800777347       47.4617817286        3.4889612266
C                26.9157784180       48.4962735174        4.4320133905
C                27.8056034087       49.6844482367        4.7704082379
C                27.1287561625       50.5370869679        5.8406930324
N                28.0890594137       51.4900343964        6.4726712041
H                27.5581198139       45.1643394338        1.8914028646
H                26.4572315864       45.9101152051        4.5410423401
H                28.5680411073       47.1871695968        3.8576596073
H                27.6662997855       47.8446159388        2.4752377466
H                25.9891639883       48.8592694050        3.9845807991
H                26.6682883645       47.9819525665        5.3599551058
H                28.7569313642       49.3014892577        5.1477556819
H                28.0010608815       50.2723714407        3.8755701608
H                26.3075007646       51.0924189114        5.3861364498
H                26.7269121101       49.8994684319        6.6285512374
H                27.6756481671       51.9583075766        7.3185093062
H                28.9216769914       50.9735236578        6.7882696300
H                28.3874663377       52.1951031496        5.7865485626
N                24.2741284181       46.6557060745        3.5507686242
C                22.9939975700       47.0767825545        2.9430102955
C                22.9942361856       48.5805510346        2.5519034003
O                23.3836512998       49.4546138920        3.3384326937
C                21.8544230175       46.7909634431        3.9164497960
O                20.6413600392       47.3579500319        3.4682095064
H                24.3120990346       46.4138282163        4.5492980218
H                22.8437927155       46.5044849504        2.0234039136
H                21.7385331817       45.7051440539        4.0187352596
H                22.1150290963       47.2193151267        4.8917942998
H                20.0410023634       47.4751887877        4.2349193920
N                22.4062071231       48.8522820356        1.3825183112
C                22.2795817370       50.2086652658        0.9378586231
C                21.4544798327       51.0831067250        1.8696932080
O                21.5826978372       52.3154229932        1.8601473136
C                21.6263847654       50.2762992482       -0.4664344924
H                22.1419235648       48.1012295459        0.7420739421
H                23.2709639606       50.6797561816        0.8804010939
H                21.5210918224       51.3136811474       -0.7709628226
H                22.2468327126       49.7472308269       -1.1815987500
H                20.6444183835       49.8117278839       -0.4277447200
N                21.3945438635       50.4978469932        5.3223219389
C                21.8536318943       50.3500834452        6.7024977142
C                21.6476771130       51.6228940102        7.5310752084
O                21.2240403269       51.5751795312        8.6986319192
C                23.3601544270       49.9989811404        6.6920231801
C                23.8459123401       49.7177153000        8.1131073045
C                23.6052596654       48.4921441933        8.7290685314
C                24.5125621260       50.7161567818        8.8136558045
C                24.0636560413       48.2625806013       10.0144416224
C                24.9909456409       50.4635699816       10.0877203039
C                24.7634116811       49.2414630966       10.6856206793
H                22.0445001499       50.2439778373        4.5781190754
H                21.2831367739       49.5593596529        7.2031638668
H                23.4964467406       49.1269426134        6.0523975751
H                23.9060144243       50.8394954624        6.2677443762
H                23.0485464872       47.7254630230        8.2112584213
H                24.6617324182       51.6893727769        8.3706069141
H                23.8609137615       47.3124963827       10.4806949408
H                25.5046655098       51.2445405602       10.6279381363
H                25.1136292553       49.0900132410       11.6945483040
O                27.3535926794       53.2176611495        8.6049253140
H                27.8124583192       53.7716785488        7.9678715485
H                26.4241701907       53.5151461200        8.5731009232
O                24.8938476354       51.8092595110        3.2590183027
H                24.8347932462       52.1537099015        2.3640839340
H                24.2157324425       52.2769761255        3.7634662506
O                24.5653815506       45.9958551893        6.2710705941
H                24.9273689879       46.7497752548        6.7482402487
H                23.6891668818       45.8417173077        6.6660193434
O                28.4693698670       45.1216478724        0.2468668433
H                29.1839701560       45.7590662946        0.1759963119
H                27.8092343278       45.3859308462       -0.4253618945
O                26.2424731420       49.3816282071        0.2885028146
H                26.0391173764       49.9557669391        1.0336354177
H                25.9631807292       48.4906892525        0.5455182232
O                30.9472104831       44.5973776653        4.2441196619
H                31.2520501314       43.6881407078        4.3427878807
H                31.6305261704       45.0502391909        3.7448334562
O                21.9976353302       45.6700921202        7.5553799835
H                21.9921951860       45.1570407092        8.3756924061
H                21.1162603861       45.5716500145        7.1593318146
N                19.7212893034       43.7360295680       -2.5684168780
C                19.9110396399       44.9762909682       -1.8190721670
C                18.5442264618       45.6426004423       -1.5607846564
O                18.2627523703       46.3108884981       -0.5601178602
C                20.7199513096       45.9581245455       -2.6450082761
C                22.2464647213       45.7506243703       -2.4914802863
C                22.7403698132       46.3092653403       -1.1825456884
O                21.9903178757       46.8285232169       -0.3772966237
N                24.0639262332       46.2926998455       -0.9885136533
H                20.3099725101       43.5877309325       -3.3822047745
H                20.3686336201       44.7763970017       -0.8446852473
H                20.4340721900       45.8512562214       -3.6906803344
H                20.4853344998       46.9718543468       -2.3161637576
H                22.4828738709       44.6892135310       -2.5644149975
H                22.7635164526       46.2633843192       -3.3028514545
H                24.7331853799       45.9668806501       -1.6715885083
H                24.4430388938       46.6348383308       -0.1125665337
H                19.1274147818       42.3231897238        8.0349931158
H                20.3370903711       39.3556142210        5.8905967442
H                28.4142388511       40.9504455436        3.2236109110
H                20.7998064343       50.6644398879        2.4990745081
H                20.6696422338       49.9811470978        5.1898876330
H                21.8553085173       52.5169528185        7.1341519826
H                19.8776274972       43.0324501197       -2.0294045135
H                17.8075325548       45.5483667612       -2.2304129867
