 379 
 
N                 2.4537102369       95.3302687751       -1.3097059115
C                 1.6374928425       94.1679620552       -0.9577435496
C                 2.4521815857       93.1634708059       -0.1074956859
O                 2.2328323378       92.9730649150        1.0839445341
C                 1.0840333304       93.5334252490       -2.2417295668
H                 2.9633904989       95.2808079397       -2.1823450400
H                 0.8261457890       94.5291946506       -0.3163415103
H                 0.5897022854       92.5943962023       -2.0062584362
H                 0.3533627619       94.2024093881       -2.6887085950
H                 1.8676272603       93.3468675729       -2.9720448642
N                 2.2932439948       90.5411380397        3.1696690461
C                 2.1318752974       89.0916701025        3.0914683503
C                 3.2525593380       88.4367351583        3.9222912709
O                 3.0658785632       87.3405981825        4.4318378599
C                 1.9590376049       88.3928968032        1.7154413365
C                 1.1543319331       87.0518619119        1.8167949294
C                -0.3440345382       87.2404281143        1.6525679077
C                 1.5481151976       86.0453931598        0.7504044620
H                 2.6225852839       91.0674911589        2.3720492775
H                 1.2217768679       88.8722984656        3.6620663712
H                 1.4393247043       89.0762690743        1.0445484209
H                 2.9447572461       88.1739633636        1.2991318931
H                 1.3770560245       86.6113653991        2.7917654812
H                -0.8751538217       86.3143633500        1.8577275362
H                -0.7222257537       88.0100514128        2.3196841934
H                -0.5578619401       87.5395261931        0.6295538295
H                 0.9194166315       85.1597148973        0.8216129250
H                 1.4466729939       86.4707069458       -0.2446697363
H                 2.5780122876       85.7282612997        0.8781050269
N                -0.8810096553       90.0292939174        8.5902358037
C                -1.6505932861       89.0305312217        7.8900615071
C                -2.8791287147       88.7190174463        8.7798160758
O                -3.9286126830       89.1963121350        8.3637804453
C                -0.7090634860       87.9358994667        7.3412833553
C                -1.2112932098       87.1118122364        6.1067880105
C                -2.4022623554       87.7461452151        5.3607116735
C                -0.0614769831       86.8696436932        5.1176558261
H                 0.0521517768       89.7809945562        8.8829582227
H                -2.1048221806       89.5391305059        7.0305623915
H                 0.1997900487       88.4587472360        7.0339723787
H                -0.4365957314       87.2470500011        8.1411668283
H                -1.5506477479       86.1357496453        6.4727600869
H                -2.6938288088       87.0985349045        4.5389014205
H                -3.2564131883       87.8652424891        6.0204252116
H                -2.1247992572       88.7152437162        4.9544328252
H                -0.3955845046       86.2425973889        4.2977336636
H                 0.2685408869       87.8248701229        4.7317545890
H                 0.7859259842       86.3831364699        5.5936148603
N                -5.4076509304       91.2069005398        8.3595149502
C                -5.9264947266       91.0226058020        7.0372675236
C                -6.7749266618       89.7886985068        7.0286435679
O                -7.8456997221       89.7644209232        6.4471124070
C                -4.8137579497       91.0486270136        5.9970477707
C                -4.9485128490       92.3305680898        5.1626884179
C                -5.3751893629       93.5691134792        5.9519232872
O                -6.4644205357       93.6819199548        6.5088772624
N                -4.5031388326       94.5925160084        5.9619248555
H                -4.4077269910       91.1508458602        8.5068085386
H                -6.6517569353       91.8182059519        6.8342744238
H                -3.8579798379       91.0479405041        6.5179576375
H                -4.8659197770       90.1828632669        5.3378124264
H                -4.0162857120       92.5455745750        4.6396672984
H                -5.7402093488       92.1783657977        4.4238896649
H                -3.6245194205       94.5694711168        5.4728643680
H                -4.7880916721       95.4466953012        6.4135422114
N               -10.1935490185       89.2088434298        7.5518768277
C               -10.9730363871       89.7473886999        6.4712922075
C               -11.8025912157       88.7881176948        5.5993043035
O               -12.8928887877       89.2005715275        5.2111859311
C               -10.1509972746       90.6351266416        5.5093629847
C                -9.4020891634       89.9232909014        4.3852839152
C                -9.7398326984       90.6428025816        3.0756648824
O               -10.9149963272       91.0299784126        2.8990847387
O                -8.7848659703       90.8108282533        2.2792017326
H                -9.2005799092       89.2607719237        7.3396405699
H               -11.7429939794       90.3962069569        6.9178649458
H               -10.8803941382       91.2972612001        5.0273878941
H                -9.4765948165       91.2603961737        6.0916242535
H                -8.3245316773       89.9689469631        4.4905758580
H                -9.7024368026       88.8844026857        4.2765790413
N               -11.3539381333       87.5734663787        5.1941055664
C               -12.1736510744       86.8700457425        4.2193460032
C               -12.5282072036       85.4515094623        4.6316216400
O               -11.7053632298       84.6905036049        5.1320493148
C               -11.5870782081       86.8185769646        2.7973477856
O               -12.6289560958       86.3937935882        1.9571590144
H               -10.4983341655       87.1814553668        5.5604067584
H               -13.0909806040       87.4693482545        4.1614887336
H               -11.1874589350       87.7988916821        2.5165312672
H               -10.8015182990       86.0670013552        2.7283884182
H               -13.2193128602       87.1375122429        1.7774453628
N               -11.6484825314       81.9126282737        0.3427786689
C               -10.8532495589       82.7414466688       -0.5173376598
C                -9.3514341482       82.6748105084       -0.1718591927
O                -8.4744586379       82.6959271453       -1.0304736801
C               -11.3848835337       84.2028083018       -0.2836109269
O               -12.6973809400       84.1619414213        0.2632437267
C               -11.2972126267       85.0023234046       -1.5914054821
H               -12.3199654726       82.4786522609        0.8659506247
H               -10.9756979106       82.4414733918       -1.5670242815
H               -10.7238259732       84.6545715089        0.4646446673
H               -12.7838346064       84.9192735339        0.8756460419
H               -11.5717028071       86.0359302466       -1.4057851824
H               -10.2665902564       84.9576213287       -1.9332714259
H               -11.9528705079       84.5704976624       -2.3417254283
N                -9.1536797618       82.7045516146        1.1515399659
C                -7.8971096708       82.5046534559        1.8332737829
C                -7.3239459421       81.1678229535        1.4438837515
O                -6.2472789191       81.1199163117        0.8708637909
C                -8.0776340428       82.5655403516        3.3484615388
C                -8.9005080169       83.7629402625        3.8601159830
C                -8.7524216702       83.9135123918        5.3726524879
C                -8.4562360430       85.0541293986        3.1874642905
H                -9.9657028487       82.4911724065        1.7198781790
H                -7.1860073857       83.2640943464        1.4930488742
H                -8.5447423047       81.6399909821        3.6916743660
H                -7.0779103038       82.5998883225        3.7903572925
H                -9.9575239743       83.5812028390        3.6463593259
H                -9.3289126655       84.7640490391        5.7166976714
H                -9.1141686919       83.0190954368        5.8754279450
H                -7.7056522356       84.0544165124        5.6389749344
H                -8.8957458043       85.9041042313        3.7004161712
H                -7.3747160842       85.1439034854        3.2623336223
H                -8.7285863947       85.0742190027        2.1373001712
N                -7.0337145411       80.8109235810       -2.4716650547
C                -5.9329560515       81.6098847912       -2.9479149409
C                -4.5356432118       81.2098798021       -2.4115905469
O                -3.5062421363       81.3547169401       -3.0761569962
C                -6.1593144864       83.0961645281       -2.6371272184
C                -5.7053563767       83.5295095951       -1.2299686131
S                -3.8801452468       83.7999467020       -0.8734538840
C                -3.4962088867       85.2282253403       -1.9736316554
H                -7.6302579090       81.2572416266       -1.7803348514
H                -5.8690741271       81.4616209957       -4.0307491188
H                -5.6155232517       83.6735856249       -3.3886111177
H                -7.2211863719       83.3036915801       -2.7388930642
H                -6.1723583611       84.4832091722       -1.0077580202
H                -5.9909772140       82.7956444333       -0.4878282173
H                -2.4576092577       85.4648007378       -1.7836771723
H                -3.6638179997       84.8970023365       -2.9882732390
H                -4.1640410676       86.0371298000       -1.7048162134
N                -2.9843119213       78.3385732368       -4.5814782828
C                -2.4632917707       79.2119521940       -5.6268352871
C                -1.0601665565       79.5756322350       -5.1843645869
O                -0.0225687887       79.0980088297       -5.6461816383
C                -3.2979715564       80.4977984967       -5.8829724506
C                -4.7757714227       80.2538990777       -6.3140416665
C                -5.5470889556       81.5592452314       -6.5972689544
C                -7.0739252428       81.5119867626       -6.4992436919
N                -7.7106081530       80.7264379901       -7.5737614148
H                -3.7865313338       78.7264920985       -4.0989589880
H                -2.4002515841       78.6240690418       -6.5513585779
H                -3.2966267423       81.1307541842       -5.0016705690
H                -2.7821497672       81.0190396815       -6.6909898570
H                -4.7835377398       79.6281214953       -7.2085499728
H                -5.2802659675       79.6891860777       -5.5266194494
H                -5.1987452941       82.3203504023       -5.8980909916
H                -5.3062092458       81.9051459006       -7.6007748038
H                -7.4094635234       81.1058079504       -5.5419432930
H                -7.4454438948       82.5291829055       -6.6113990632
H                -8.7137242036       80.9211343281       -7.5684360610
H                -7.3195800472       80.8776031889       -8.6389003521
H                -7.5814859646       79.7278590473       -7.4001992232
N               -10.8768176928       93.6890686377       -1.2859786845
C                -9.5416409306       93.6977526294       -0.6116430428
C                -8.6004652735       94.6057790418       -1.4557406042
O                -8.4910282508       94.3273433681       -2.6406631178
C                -8.9887129434       92.2408245626       -0.6149708353
O                -7.8013466140       92.1657802046        0.1164458189
H               -11.4492692799       92.9045420021       -0.9277133414
H               -11.3852065696       94.5706558049       -1.1122687499
H               -10.7100209286       93.6051759749       -2.3083812291
H                -9.6281502209       94.0401846316        0.4207119182
H                -9.7361131641       91.5749783260       -0.1717583163
H                -8.7687571321       91.9438468534       -1.6434657538
H                -8.0255077055       91.7671246838        0.9867711111
N                -8.0604221635       95.6809411078       -0.8390614110
C                -7.0510881375       96.4504809054       -1.5690888951
C                -5.9561422513       95.3971844826       -1.9815303556
O                -5.7409646286       95.0791638120       -3.1367118875
C                -6.4965608885       97.7473684910       -0.8996586723
C                -6.8321832096       98.1335451590        0.5446503962
C                -5.5585015102       98.0433949280        1.4673605716
O                -4.7587034247       97.1032006715        1.2479850838
O                -5.4634514588       98.9128953284        2.3535664315
H                -8.0344435906       95.7248055109        0.1706301833
H                -7.5214866275       96.7358776248       -2.5173004392
H                -5.4051603007       97.6576963453       -0.9478763203
H                -6.7633860324       98.5793475527       -1.5505116909
H                -7.1884450204       99.1616189919        0.5978445644
H                -7.5889595180       97.4960105211        1.0035722084
N                -5.4529433350       94.7893118469       -0.8936517198
C                -4.5709768223       93.6284164652       -0.8695387315
C                -5.0273910236       92.4086228100       -1.7381109011
O                -4.9743378108       92.4172844367       -2.9568344849
C                -4.4112112616       93.3420981937        0.6176977864
H                -5.4280845811       95.3402291071       -0.0407603465
H                -3.5976939846       93.8941350016       -1.3143639676
H                -3.7309194047       92.5114530111        0.7894939258
H                -3.9978306767       94.2221532902        1.1064904303
H                -5.3771568595       93.1221675808        1.0681934145
N                -5.3978590100       91.2992662983       -1.0844725796
C                -5.4897309472       89.9758575585       -1.6693453606
C                -6.2458962808       89.8281978593       -2.9669096026
O                -6.1226508949       88.7765047233       -3.5892702926
C                -6.2522396736       88.9482456588       -0.7930285183
C                -5.6628840741       88.5038746069        0.5591442031
C                -6.3418295977       87.2081218374        1.0075878224
C                -4.1625725852       88.2633080273        0.4952694945
H                -5.6287166751       91.3562948339       -0.1045366705
H                -4.4814129540       89.5941588723       -1.8400210672
H                -7.2523340714       89.3410507971       -0.6012526447
H                -6.3476186202       88.0525410377       -1.4100651310
H                -5.8700629839       89.2763472457        1.3062609989
H                -6.0177332690       86.9538836807        2.0125240194
H                -7.4217971577       87.3226369701        1.0191918232
H                -6.0735425927       86.3902189048        0.3434064225
H                -3.8202001382       87.8193705867        1.4266454846
H                -3.9121645319       87.5822524576       -0.3129479504
H                -3.6162437675       89.1944785294        0.3603771161
N                -7.1784575727       90.7248621703       -3.3116406107
C                -8.1279594415       90.3396285190       -4.3448918499
C                -7.4308601492       90.0497357459       -5.6964325949
O                -7.9259669283       89.3594171424       -6.5710430624
C                -9.2285053457       91.3906242715       -4.5127169005
C               -10.5862570057       90.7508805542       -4.8538185435
C               -11.3364724621       90.1432754535       -3.6557442649
C               -12.5985753006       89.3757718627       -4.0712451881
N               -13.6568414567       90.2850381329       -4.6039348434
H                -7.1475270586       91.6736020962       -2.9691448401
H                -8.5672718367       89.3854745174       -4.0260783174
H                -9.2898935947       92.0008494044       -3.6129527824
H                -8.9412532668       92.0660921267       -5.3203314225
H               -11.1816407377       91.5373337276       -5.3160922449
H               -10.4006303656       89.9887174531       -5.6128485322
H               -10.6773961881       89.4420941562       -3.1444012368
H               -11.5945703064       90.9310916832       -2.9513972182
H               -12.3358605253       88.6628260297       -4.8552269698
H               -13.0038377664       88.8365252106       -3.2139545561
H               -14.4731885453       89.7505963640       -4.9333408044
H               -13.9619843117       90.9561119545       -3.8821655925
H               -13.2833554253       90.8213327304       -5.4013049725
N                -6.2510897304       90.6721741520       -5.7376919294
C                -5.2014700139       90.7454683572       -6.7329092628
C                -4.3758567620       89.4114607482       -6.8416219396
O                -4.0653949393       88.8327208376       -7.8746649571
C                -4.3447200021       92.0115726615       -6.2993742269
C                -3.3141606390       91.7314878102       -5.1744520653
C                -5.2344986478       93.2167205950       -5.9054843404
C                -2.4927300074       92.9429604450       -4.7005048605
H                -6.0402624089       91.2588430833       -4.9403099356
H                -5.6359372717       90.9387703648       -7.7191297115
H                -3.7758129608       92.2884989697       -7.1935970352
H                -3.8644521266       91.3506073731       -4.3234541960
H                -2.6173058598       90.9714978437       -5.5284391863
H                -4.6642963892       94.1305198214       -6.0659105346
H                -6.1184696325       93.2673411480       -6.5327681623
H                -5.5012176432       93.2095945812       -4.8569953215
H                -1.6671710280       92.5972186012       -4.0836763960
H                -2.0744338292       93.4738647195       -5.5533352587
H                -3.1116338428       93.6247590162       -4.1260942666
N                -4.0641143341       88.9770086344       -5.6193151435
C                -3.4476339062       87.7499276404       -5.2177798542
C                -4.3775515745       86.5327846457       -5.4392628664
O                -4.2379855749       85.4914061302       -4.8176959240
C                -3.1114804568       87.7898889997       -3.7110532437
C                -1.8916818933       88.5986500202       -3.2190677182
C                -2.2018330619       89.9256591952       -2.5252970910
C                -1.1168314531       87.7421362446       -2.1961208736
H                -4.6365322706       89.3898644718       -4.8953916149
H                -2.5507626133       87.5656445182       -5.8240385941
H                -4.0201942625       88.0780557383       -3.1887006377
H                -2.9117763705       86.7521997406       -3.4695699462
H                -1.2433990116       88.7891307903       -4.0773525569
H                -1.2803359349       90.4958534577       -2.4361728991
H                -2.9162090617       90.5206004908       -3.0677178945
H                -2.5541082044       89.7334449923       -1.5154816708
H                -0.2386561271       88.2844228125       -1.8534462287
H                -1.7441099934       87.5134162976       -1.3402903977
H                -0.7764716155       86.8118660988       -2.6453272378
N                -5.3512733990       86.6700575772       -6.3548558356
C                -6.1729916953       85.5382075832       -6.7137665179
C                -5.6708869734       84.9606506576       -8.0358097640
O                -6.0160943583       83.8497066910       -8.3950423461
C                -7.7015036020       85.8704547400       -6.7838871601
C                -8.6401139155       84.8298275824       -6.1421355705
O                -9.2784847770       84.0175426644       -6.7927292899
N                -8.7174976039       84.8974296004       -4.8017302654
H                -5.5095292039       87.5336183523       -6.8399550107
H                -5.9944989650       84.7814515263       -5.9364114425
H                -7.8524606358       86.8375653586       -6.3029642673
H                -7.9833462469       85.9651867110       -7.8335481235
H                -9.2831809207       84.2299158199       -4.2964270887
H                -8.1132709757       85.5125161144       -4.2842632180
N                -4.8214820096       85.6782110415       -8.8001085580
C                -4.8032193438       85.2425100078      -10.1918492309
C                -3.4314351335       84.7550610615      -10.4148596832
O                -2.5582534879       85.4393178197      -10.9484118748
C                -5.1735488881       86.3397601307      -11.1601778952
C                -6.4933399666       86.8970105403      -10.6537743034
O                -7.2749105848       86.1970916252      -10.0283593433
N                -6.6734755202       88.2175135342      -10.8699972842
H                -4.5761634745       86.6388333680       -8.5948435353
H                -5.5333820359       84.4260414565      -10.2723343135
H                -4.4289142725       87.1306902854      -11.1335015246
H                -5.2989101718       85.9450720712      -12.1683452637
H                -7.5444182760       88.6518406571      -10.6051306720
H                -6.0243270692       88.7596958100      -11.4128947610
N                -3.1658644294       83.5508102706       -9.9752938813
C                -2.0190744097       82.8902436620      -10.5222234828
C                -1.3052926402       83.7058111853      -11.6381557787
O                -0.1140028312       83.9419196732      -11.4172688228
C                -2.4078697246       81.4518856151      -10.9190951568
C                -1.2415385092       80.8736473043      -11.7102987853
C                -3.6926409663       81.3091637032      -11.7306658376
C                 0.0271111872       80.8630108529      -10.8710763342
H                -3.9164546998       82.9779639439       -9.6098730805
H                -1.2506777113       82.8210083705       -9.7432402770
H                -2.5257572793       80.8760149466       -9.9975352570
H                -1.4815683026       79.8555147198      -12.0206453395
H                -1.1017569967       81.4406942238      -12.6308023524
H                -3.6800159436       80.3416400056      -12.2319545497
H                -4.5850647665       81.3389589777      -11.1072691808
H                -3.7865029927       82.0717143179      -12.5000181097
H                 0.7862220648       80.2479132165      -11.3417988070
H                 0.4164688462       81.8587244854      -10.7053196739
H                -0.1993583270       80.4002955223       -9.9140134197
N                -0.6674524424       86.5904632253      -12.5433377790
C                -0.3453999632       87.7962165311      -11.8352611190
C                 0.4140066584       87.4996158423      -10.5433510833
O                 0.9727766755       88.2818662706       -9.7858894540
C                -1.6729997913       88.4541951128      -11.3963422062
O                -2.0465089148       87.8852026125      -10.1618481000
C                -2.7364266216       88.4713649314      -12.5172562564
H                -1.6110706626       86.2692291712      -12.3752896439
H                 0.2099042607       88.4759947769      -12.4841098627
H                -1.4474114200       89.4974885531      -11.1429041266
H                -2.2999292196       86.9602665699      -10.3209621310
H                -3.5568675883       89.1137467514      -12.2072162585
H                -2.2895008012       88.9113109012      -13.4044413214
H                -3.1262184060       87.4905816322      -12.7604591700
N                 3.7814596509       88.8253943660       -9.5876210339
C                 4.4200236301       89.5548658009       -8.4991299029
C                 5.4879589998       88.6519164847       -7.8445147376
O                 6.3510206257       89.0855075947       -7.0914462736
C                 3.4301498839       90.2607516561       -7.5494641994
C                 4.0786755797       91.5101832534       -6.8312199755
C                 3.3508650238       92.8731769389       -6.4723918978
O                 3.4908083271       93.5165822835       -5.4212946365
N                 2.6192330303       93.3699152499       -7.4781268596
H                 2.7857173969       88.6198316214       -9.5627978305
H                 5.0374767983       90.3431147858       -8.9668488708
H                 2.5764143406       90.5672203420       -8.1570391867
H                 3.0724256272       89.5669314150       -6.7906463253
H                 4.5574639521       91.1585149126       -5.9192444810
H                 4.8948017805       91.8753146032       -7.4684439462
H                 2.4898601716       92.8620436433       -8.3347061850
H                 2.1357170246       94.2458816551       -7.3516511294
H                 1.9279778564       96.0577998021       -1.3753113131
H                 3.1921498570       92.6378796358       -0.5272585706
H                 1.5005460579       90.9217618533        3.3613862684
H                 4.1264481346       88.9078043884        4.0423418921
H                -0.7792977708       90.7529873204        8.0649524983
H                -2.7695918637       88.1720446983        9.6097693825
H                -5.6340695814       92.0245469708        8.6598296325
H                -6.4656637225       88.9659142330        7.5054899510
H               -10.3552318674       89.6787416793        8.3022462644
H               -13.4584503928       85.1097297454        4.4980767630
H               -12.0978678266       81.3100485990       -0.1521461658
H                -7.8247748256       80.3284208575        1.6550106109
H                -7.5665348417       80.5910953333       -3.1628799770
H                -4.4448003240       80.8185156410       -1.4958495010
H                -3.2387191846       77.5549943750       -4.9438056372
H                -0.9236105813       80.2536581305       -4.4621226948
H                -1.8132665104       83.9928441659      -12.4502977707
H                -0.5819138804       86.7298233116      -13.4283586379
H                 0.5012271311       86.5574730043      -10.2196854194
H                 3.8830327233       89.2827828323      -10.3560471539
H                 5.4934203654       87.6691965778       -8.0295330016
