 252 
 
N               -12.9078910142       82.1285852661        5.3498441477
C               -11.9998709014       81.0653632103        4.9780180264
C               -11.9286387434       80.8447167249        3.4659941892
O               -10.8479455858       80.8025235514        2.8974210861
C               -12.3441365743       79.7275266720        5.6096541527
C               -11.1650391244       78.7408638092        5.4163103021
C               -10.4939255565       78.4317339864        6.7774655902
C               -11.6079188404       77.4941051998        4.6281503531
H               -13.7099537004       81.9133352371        5.9250977725
H               -10.9879286189       81.3654924351        5.2836391001
H               -12.5295220505       79.8616870963        6.6777624962
H               -13.2456351979       79.3101002238        5.1616249775
H               -10.3972256600       79.2207412701        4.7995018265
H                -9.6585552746       77.7497420233        6.6354940001
H               -10.1189942798       79.3459763134        7.2254840717
H               -11.1973301989       77.9730200626        7.4675723533
H               -10.7720783391       76.8091699408        4.4919715763
H               -12.4016841943       76.9627150519        5.1468147495
H               -11.9571337763       77.7785721547        3.6367040663
N                -7.5480492087       79.5815599160       11.2062750028
C                -8.9420209361       79.5500037499       10.9239686173
C                -9.4522862570       78.3023767541       10.2694386755
O               -10.6537189616       78.2438218456       10.0499020983
C                -9.3931047026       80.7086888293       10.0783561761
C                -9.4192198033       82.0325965804       10.9065050074
C               -10.7870454917       82.7873242165       10.9306918772
N               -10.9551518570       83.7403133209        9.8212679444
C               -11.6461391340       83.5480014624        8.6748113906
N               -12.8092342366       82.9177827326        8.6519340452
N               -11.1812323254       84.0746380793        7.5523516143
H                -6.9057157689       79.7294091530       10.4383689491
H                -9.4583461934       79.5754356875       11.8966546199
H                -8.7132809102       80.7830124161        9.2276261095
H               -10.3922713502       80.4820410786        9.7062386798
H                -9.1646183571       81.8052989880       11.9408195138
H                -8.6468149240       82.7016888109       10.5260085964
H               -11.5985926312       82.0597478878       10.9233799197
H               -10.8574351073       83.3434270104       11.8671889799
H               -10.1309785186       84.3185453676        9.7008584240
H               -13.1715265013       82.3128016099        9.3917097731
H               -13.2445385686       82.7205001829        7.7686949356
H               -10.4813649913       84.8026035450        7.5640500501
H               -11.7674468198       84.1205158103        6.7311250834
N                -8.5898984289       77.3181434023       10.0409924968
C                -9.0204591914       75.9345063738        9.9335629864
C                -9.5797695881       75.4754858336       11.3217403036
O               -10.5945408976       74.7882893354       11.4310982734
C                -7.9027752669       75.0023086709        9.4397531257
C                -7.4546854354       75.1111044295        7.9541423826
C                -8.3644224469       74.5301437662        6.8481568849
N                -8.6575766023       73.0824071313        6.9288987134
C                -8.7651603314       72.1410138192        5.9715719428
N                -8.2147486709       72.2644985868        4.7622128086
N                -9.4068636521       70.9986817469        6.2663189489
H                -7.6328137932       77.4555644129       10.3303008037
H                -9.8787312250       75.8940325569        9.2508813460
H                -7.0270316959       75.1985686078       10.0586338191
H                -8.2077184519       73.9755491972        9.6529547930
H                -7.3253135641       76.1673143315        7.7226205235
H                -6.4800616892       74.6227306341        7.8889283433
H                -9.3260367162       75.0514613841        6.8761058953
H                -7.9077087437       74.7381761299        5.8821097905
H                -9.0594493469       72.8241901897        7.8216053730
H                -8.1011576805       73.2098377384        4.3913669480
H                -8.4341834412       71.5883453846        4.0465057941
H                -9.6827410686       70.7885858198        7.2136847373
H                -9.3679220740       70.2270531533        5.6191422404
N                -8.9330093280       75.9410188845       12.3933857123
C                -9.4646542717       75.6599426711       13.7113040461
C               -10.7250482808       76.5167722873       13.9430490169
O               -11.8065404732       75.9443299113       13.9284589244
C                -8.3216136458       75.6883675668       14.7267167323
C                -7.4664676570       74.4409000841       14.4401682260
C                -6.1468509375       74.1731004207       15.2913173233
O                -6.2718223726       73.8287068953       16.4863732081
O                -5.0826538924       74.2859247643       14.6544901637
H                -8.0387983073       76.4097338566       12.3322110623
H                -9.8674713372       74.6356257271       13.6880132850
H                -7.7207227626       76.5959731803       14.6262764693
H                -8.7063083699       75.6501576571       15.7473427700
H                -8.0925935623       73.5584723842       14.5945274465
H                -7.1319130453       74.4688533671       13.4027384775
N               -10.6039770332       77.8427034492       14.0490477556
C               -11.7416473996       78.7193024042       14.3345510337
C               -13.0050588955       78.1404465867       13.7034893128
O               -14.0145801360       78.0252815753       14.3879459352
C               -11.4852851465       80.2009727459       13.9609266756
C               -10.2403625599       80.6882953696       14.7337582983
C                -9.7754963087       82.1917674363       14.6508300206
O               -10.6623222207       83.0141265473       14.3658534489
O                -8.5651686056       82.4184528559       14.9025246776
H                -9.6761185780       78.2461847535       14.1141805332
H               -11.9235560907       78.6902001138       15.4212632155
H               -11.3557953289       80.2935601547       12.8823982921
H               -12.3615551209       80.7861933804       14.2341570182
H               -10.4160565916       80.4948012069       15.7984410516
H                -9.3582199779       80.1120667621       14.4518475983
N               -12.9467866960       77.7205701430       12.4352259000
C               -14.1585216216       77.2465776220       11.7966899713
C               -14.4726036741       75.7723267820       12.0063155833
O               -15.6321509576       75.4563713390       12.2745675522
C               -14.1951431403       77.5032374668       10.2822876017
C               -15.0074209493       78.7407300609        9.8684245222
C               -14.3677737230       80.1444737149       10.1801084113
O               -14.4118338334       80.9368389752        9.2095243633
O               -13.8858716991       80.4015246444       11.3046726206
H               -12.1705692004       77.9685201409       11.8382286231
H               -14.9866496039       77.7833357230       12.2811977854
H               -13.1663785292       77.6288647041        9.9340725295
H               -14.6165277554       76.6256359974        9.7898550157
H               -15.1627700279       78.7128910708        8.7880326162
H               -15.9911900317       78.7324510471       10.3459346727
N               -13.5314867438       74.8401373935       11.7611588207
C               -13.9857982926       73.5042148045       12.0496220749
C               -14.2525552290       73.2141148550       13.5322496652
O               -14.7761066161       72.1573558401       13.8323121130
C               -13.2648606246       72.3789720895       11.3354360495
O               -14.1990546352       71.7792931394       10.4481056772
H               -12.5393626715       75.0434078080       11.8081725950
H               -15.0118339883       73.4627512959       11.6428758989
H               -12.4121945674       72.7914878098       10.7815796646
H               -12.9057645464       71.6496752142       12.0684076129
H               -13.9439738775       70.8596007186       10.2975009772
N               -14.0201487451       74.1995545577       14.4144325554
C               -14.7847957463       74.3180942316       15.6546954992
C               -16.2760618331       74.3855519859       15.3359455678
O               -17.0034243582       73.3964908035       15.3582916262
C               -14.4183655456       75.5479971536       16.4930002508
H               -13.4437968449       74.9901940530       14.1590583971
H               -14.6401261642       73.3955105777       16.2366116095
H               -15.1605633353       75.6793287299       17.2765709558
H               -13.4445709175       75.4132600031       16.9570031956
H               -14.3677136191       76.4398139250       15.8730179429
N               -16.7479759129       75.6075842591       15.0975753500
C               -18.1600376504       75.8300764620       15.3018387711
C               -18.9242677904       74.7386156225       14.5679867259
O               -19.8828188937       74.1698718555       15.0807318209
C               -18.5656458021       77.2081280821       14.8248168083
H               -16.1352898717       76.4091465973       15.1028981256
H               -18.3878994322       75.7336379518       16.3765568137
H               -19.6315715406       77.3551251401       14.9722087612
H               -18.0265876734       77.9595429040       15.3962727427
H               -18.3298687484       77.3246554741       13.7695526273
N               -18.5133074452       74.5406317456       13.3077255516
C               -19.1452034772       73.5698868052       12.4214343987
C               -19.6451509684       72.3447466335       13.1956378744
O               -20.8132819816       71.9648028130       13.2151806375
C               -18.1542718902       73.0908481773       11.3633130479
H               -17.6518355024       74.9697969473       12.9893803413
H               -20.0209615482       74.0399803895       11.9520256443
H               -18.6257235823       72.3364221038       10.7390165529
H               -17.8531202866       73.9276066454       10.7371635319
H               -17.2693023955       72.6626017501       11.8233848143
N               -18.6379352936       71.6655398747       13.7472589277
C               -18.8231102203       70.4592451063       14.5186137400
C               -19.8791786845       70.6515686810       15.6064147902
O               -20.8876176740       69.9541985582       15.5810208640
C               -17.4810312961       70.1120014977       15.1478430449
H               -17.7504652436       72.1264980918       13.9031173591
H               -19.2000255116       69.6652927690       13.8597431872
H               -17.5777276064       69.2757594950       15.8343696856
H               -16.7631200085       69.8564494065       14.3731393739
H               -17.0967148084       70.9719917082       15.6882202243
N               -19.5336727653       71.5818373049       16.5123126515
C               -20.2824973730       72.1116416396       17.6372936323
C               -21.6740229956       72.6237796580       17.2624585869
O               -22.4057615272       73.1061951978       18.1127328809
C               -19.4636429776       73.2348514073       18.2616480692
C               -19.9615759511       73.7428352123       19.6115708285
C               -19.1387468995       75.0074573917       20.1590194071
O               -18.4236294544       75.6394782607       19.3465676875
O               -19.2744789854       75.2926879052       21.3715831257
H               -18.7174531017       72.1359139778       16.2828696296
H               -20.4180844638       71.3091196165       18.3788483260
H               -18.4332255607       72.8853183719       18.3824213118
H               -19.4398914050       74.0705492470       17.5570140287
H               -20.9987908338       74.0633817446       19.5458849882
H               -19.8859192113       72.9602743401       20.3678885296
N               -22.0714005007       72.3715077221       16.0074743619
C               -23.4109359877       72.6473185603       15.5777592803
C               -24.0142841545       71.5575447536       14.7086405920
O               -25.2285434870       71.3780028038       14.7279813814
C               -23.4751830103       74.0273117644       14.9584144770
C               -24.7792070386       74.1640085745       14.1873466860
C               -23.3030121767       75.0552208279       16.0740791196
H               -21.3768421027       72.3020671729       15.2814593426
H               -24.0371187203       72.6650144351       16.4813125527
H               -22.6353210159       74.1206432640       14.2604900611
H               -24.9111799884       75.1879699835       13.8435693045
H               -24.7733006897       73.5130739948       13.3170434505
H               -25.6252065391       73.8914124711       14.8117599381
H               -23.4553333231       76.0583281860       15.6764784595
H               -24.0139757834       74.8927777720       16.8778214351
H               -22.2988521991       75.0150430976       16.4853213342
N               -23.2082810476       70.7619512942       14.0050590582
C               -23.7501208065       69.4369647473       13.7629747800
C               -23.8612276859       68.6862702356       15.0974472187
O               -24.4686067602       67.6296411543       15.1666595633
C               -23.0802128565       68.5908959626       12.6573154603
C               -24.1239709856       68.0510685959       11.6554886655
C               -23.6107832280       67.3330394636       10.3390980884
O               -22.7490127504       66.4392525962       10.4660732157
O               -24.1584082421       67.6922436169        9.2739139509
H               -22.2124645673       70.9139407663       13.9455652303
H               -24.7964422469       69.5930172144       13.4639911172
H               -22.3586101679       69.2147909856       12.1272292945
H               -22.5389323324       67.7559421799       13.1016239866
H               -24.7584481558       67.3209788047       12.1641240617
H               -24.7595465562       68.8670599734       11.3042820875
N               -23.3834077092       69.3241309979       16.1770170778
C               -23.6020841601       68.7527406899       17.4972317093
C               -25.0497769496       69.0184766868       17.8304758314
O               -25.8582500271       68.1398497809       18.0803301559
C               -22.7585592521       69.4037880876       18.6130157644
C               -21.5562170931       68.5534161752       19.0159634993
C               -21.9494764749       67.2172917828       19.7611473408
O               -21.3312916721       66.9947252607       20.8233120342
O               -22.8150771212       66.4841672514       19.2391545596
H               -22.5720611304       69.9186039408       16.0607901325
H               -23.4271374788       67.6706575214       17.4952628657
H               -22.4227428305       70.3898806875       18.2825133030
H               -23.3829182077       69.5407172841       19.4996822863
H               -20.9854277733       68.2800784105       18.1229974136
H               -20.9002443803       69.1092076537       19.6891200337
N               -25.3408952384       70.3307841764       17.8302215357
C               -26.6004327157       70.7825866474       18.3590322749
C               -27.6886427152       70.1407505723       17.5267702326
O               -28.5972199327       69.4756682346       18.0150224581
C               -26.7454721134       72.2907323636       18.3420565926
C               -27.6288927051       72.6889412473       19.5069043440
C               -27.5033675555       74.1724354399       19.8178974707
N               -27.7487103671       74.4200301523       21.2330197665
C               -28.7278289159       75.1340173723       21.7831567096
N               -29.7240205970       75.6119863429       21.0463701813
N               -28.7255711703       75.3358707449       23.1061344421
H               -24.5812984541       70.9927330827       17.7808282907
H               -26.7010056368       70.3886291411       19.3808987407
H               -25.7554366411       72.7386129529       18.4602422370
H               -27.1715945918       72.6271852387       17.3965463075
H               -28.6652519799       72.4144701985       19.3124950052
H               -27.3082003456       72.1377791690       20.3940015544
H               -26.4805822374       74.5003376090       19.6088289527
H               -28.1656659785       74.7705632009       19.1954824851
H               -27.0542942902       74.0225260462       21.8505999967
H               -29.8354381937       75.3076435353       20.0919169770
H               -30.4797071169       76.1444038451       21.4448539329
H               -27.9218599177       75.0923538158       23.6627901639
H               -29.3890850959       75.9731385427       23.5180624550
H               -12.4610981947       82.7563009119        5.8149777247
H               -12.7698072202       80.7339644641        2.9366837600
H                -7.3736936563       80.2486562914       11.7847061286
H               -27.6878625891       70.2498221024       16.5327366352
