 347 
 
N                37.2704213227       64.1667939574      -15.6576339580
C                38.2944263604       64.4337000918      -16.6320284941
C                39.5987386260       64.6908612204      -15.8795401545
O                40.5539405978       63.9365496092      -16.0688865777
C                37.8914979565       65.6488010906      -17.5028575319
C                36.6936072405       65.4040054725      -18.4147612019
C                36.8670373832       65.0285418459      -19.7500741460
C                35.3731502090       65.5520192390      -17.9757439670
C                35.7980714315       64.8149662505      -20.6114466656
C                34.2906674130       65.3182455181      -18.8231270513
C                34.4847283185       64.9503229789      -20.1606474755
O                33.4676952972       64.7005116588      -21.0427669391
H                36.8300933603       64.9988903855      -15.2805977711
H                38.4430593462       63.5356870105      -17.2422184133
H                37.6807937391       66.4855021062      -16.8339894597
H                38.7582541462       65.9024996816      -18.1137153668
H                37.8687550157       64.8974703940      -20.1318885557
H                35.1977923485       65.8289397568      -16.9516824881
H                35.9739174036       64.5107775155      -21.6310154937
H                33.2916371113       65.4076616900      -18.4312590124
H                32.6125270428       64.7614387041      -20.5948352370
N                39.6354800441       65.6993965044      -15.0116221781
C                40.7985653281       65.8967017703      -14.1500158697
C                41.3927205634       64.4884926559      -13.9402155012
O                42.5685341109       64.2375717663      -14.1542093988
C                40.4119891776       66.5969263538      -12.8326875369
C                41.6457718891       67.0931472780      -12.0720679419
C                41.3240548062       68.1539169022      -11.0246805862
N                40.6638964505       67.5712730998       -9.8686488182
C                40.4369424617       68.2027400856       -8.7121641427
N                39.9970941968       67.4790240236       -7.6683665695
N                40.7608922607       69.4731034222       -8.5002154323
H                38.8298982586       66.3014170178      -14.8627754369
H                41.5413152897       66.5028101006      -14.6815662754
H                39.7752056664       67.4413027205      -13.1007584851
H                39.8235935330       65.9097117538      -12.2254110550
H                42.1529233273       66.2487912768      -11.6046219023
H                42.3390805022       67.5299517217      -12.7915278235
H                42.2479427611       68.6334283381      -10.6891097260
H                40.6892350242       68.9309455507      -11.4661830869
H                40.2365235651       66.6641524380       -9.9884358736
H                39.5560015808       66.5902309063       -7.8704116489
H                39.7180128278       67.9669759215       -6.8334848545
H                40.9275625574       70.1883397784       -9.2269388979
H                40.6156451174       69.8561443884       -7.5815630336
N                40.4589209473       63.6340895987      -13.4950280328
C                40.5933391888       62.2158227088      -13.3232286257
C                40.7773203374       61.3919560220      -14.6177221404
O                41.9275122996       60.9865839437      -14.8164627226
C                39.4791721687       61.7566680361      -12.3932826590
C                39.6101506689       62.4775456750      -11.0536481326
C                38.9755812580       61.7242791740       -9.8348809427
O                38.9295707474       62.3910824832       -8.7778215954
O                38.5775892615       60.5494210573       -9.9845462025
H                39.5173637195       63.9863865351      -13.3765420990
H                41.5572107019       62.0405796004      -12.8170719451
H                38.5044571913       61.9573977055      -12.8398287334
H                39.5502404359       60.6787538917      -12.2230454692
H                40.6660632074       62.6040364238      -10.8016521281
H                39.1513551887       63.4642718727      -11.0913779586
N                39.7838362073       61.0250692301      -15.4410950771
C                40.1373978581       60.0400369385      -16.4691248620
C                41.2901042007       60.5642865702      -17.3420708958
O                42.0924842358       59.7537397632      -17.7971465330
C                38.9737997922       59.4783056728      -17.3125926616
C                39.4399370970       58.4592577443      -18.3926275915
S                39.4112815810       56.5771079696      -18.1501920436
C                39.8351319553       55.9240753348      -19.8023569632
H                38.8194016886       61.3560410158      -15.3903183982
H                40.5912502782       59.1798670329      -15.9487256605
H                38.2322799062       59.0391488347      -16.6440929001
H                38.5056202553       60.3105502114      -17.8392894794
H                38.8268515587       58.5994483971      -19.2811579682
H                40.4785255867       58.6444557204      -18.6437861889
H                39.8920642655       54.8503144234      -19.6721109467
H                39.0411306445       56.1976353167      -20.4913911358
H                40.7972179841       56.3282113132      -20.0990750445
N                41.3789519472       61.8830144658      -17.5760004613
C                42.6209379898       62.3928277928      -18.1216878813
C                43.8415638746       61.9344388084      -17.3386345502
O                44.7262007521       61.2760713753      -17.8895818863
C                42.8235763353       63.9048525126      -18.1255557052
C                42.1858321406       64.7099546288      -19.2603424176
C                43.0875752226       65.9041959259      -19.6035963140
C                41.8813613120       63.8767520471      -20.4956189068
H                40.8408254070       62.5535662891      -17.0297039442
H                42.7448986646       61.9693528013      -19.1256923198
H                42.5022454530       64.3003726982      -17.1632536281
H                43.9081655409       64.0471553568      -18.1883150528
H                41.2278858516       65.1037921992      -18.8979878013
H                42.6479606060       66.4908800215      -20.4053123986
H                43.2018728043       66.5369898820      -18.7263753433
H                44.0755989438       65.5755889824      -19.9086214732
H                41.4717810110       64.5102382913      -21.2799608139
H                42.7843473728       63.4091059632      -20.8823782262
H                41.1583147534       63.0963656238      -20.2789884453
N                43.9767523548       62.4001429996      -16.0953103544
C                45.2851526692       62.2896996241      -15.4890253537
C                45.6656191731       60.7957532788      -15.3469845772
O                46.8370291658       60.4372880511      -15.4653790587
C                45.3505496919       63.2159356275      -14.2691663238
C                46.7495210852       63.7886400725      -14.0389209058
C                44.7702823479       62.5169205166      -13.0505607558
C                46.6966969620       65.0726352247      -13.2127198338
H                43.2630004122       62.9277950466      -15.6160297116
H                46.0208605286       62.6469054359      -16.2290715089
H                44.7074533966       64.0635457369      -14.5172906570
H                47.3832752781       63.0466001000      -13.5487089960
H                47.2066803255       64.0010436473      -15.0092254450
H                44.6489040522       63.2098165023      -12.2234512961
H                43.7998723010       62.1000742705      -13.3008452536
H                45.4256921292       61.7055268139      -12.7361315515
H                47.6915479853       65.5063847951      -13.1304105299
H                46.0474887812       65.8003008505      -13.6910401172
H                46.3257406510       64.8669388335      -12.2137135512
N                44.6638314830       59.9049827572      -15.1737135192
C                44.8059086337       58.4550531391      -15.0644645239
C                45.2434890336       57.6975027830      -16.3430486250
O                45.8150685482       56.6151430451      -16.2729069249
C                43.4542879504       57.8918600320      -14.6445212259
H                43.7168985771       60.2618604376      -15.1548989750
H                45.5699395714       58.2338295002      -14.3064783465
H                43.5249939399       56.8186546179      -14.4909128356
H                43.1116127904       58.3642344357      -13.7271255986
H                42.7279348603       58.0836889736      -15.4324060186
N                44.9243109830       58.3181648806      -17.4824705078
C                45.3976637034       57.9948565347      -18.8111516312
C                46.7475193484       58.6937582525      -19.0826898166
O                47.1645904107       58.9137957755      -20.2154438352
C                44.4000820746       58.4489392349      -19.8800193636
C                43.1171252029       57.5758778507      -20.1246971213
O                42.9259211965       56.5378626444      -19.4725092993
O                42.3808392812       58.0110400813      -21.0458436491
H                44.4534065950       59.2130220645      -17.4185490380
H                45.5485514409       56.9072060546      -18.8553711874
H                44.0495588492       59.4497744208      -19.6185585319
H                44.9188096209       58.5125483189      -20.8397166248
N                47.4623211828       58.9923576661      -17.9942615506
C                48.6493318545       59.8086753952      -18.0212983287
C                48.2864518367       61.2783915150      -18.2823967401
O                48.2042724231       62.1175355089      -17.4075872581
H                46.9884930024       58.9951234547      -17.1013852509
H                49.1228856147       59.7361146114      -17.0435395566
H                49.3073971400       59.4416491715      -18.8113987841
N                48.1919787960       61.5575085129      -19.5919846692
C                47.6641897083       62.8384284890      -20.0074637619
C                47.4993441310       63.7780966646      -18.7855325037
O                46.4182878786       63.9594823542      -18.2494965146
C                46.3195712613       62.6682654749      -20.7258383374
C                46.3927997765       61.6174460280      -21.8372973618
C                45.9102331362       64.0197620231      -21.2946022003
C                45.0500238811       61.4031523015      -22.5238800241
H                47.9775738745       60.7589153402      -20.1859395356
H                48.3937538960       63.3013788802      -20.6774375427
H                45.5960188575       62.3444081283      -19.9670210061
H                47.1355346462       61.9316809917      -22.5732727882
H                46.6805385432       60.6487862140      -21.4301849226
H                44.8402695074       64.0552120385      -21.4782956736
H                46.1606519953       64.8200860160      -20.6042499619
H                46.4278744109       64.2001994752      -22.2238347802
H                45.1181035118       60.5989340790      -23.2514540520
H                44.2954912997       61.1243511390      -21.7888862076
H                44.7121395384       62.3024115273      -23.0314526946
N                48.6160864956       64.4781628679      -18.4465095102
C                48.5400954215       65.7688862298      -17.7547087427
C                47.8035568168       66.7870543423      -18.6590076634
O                47.6399899835       66.5788340647      -19.8624370533
C                49.9547982679       66.2581826784      -17.4308617969
C                50.0431665347       67.6739690175      -16.7300671759
O                50.0607955636       67.6742766781      -15.4831548386
O                50.1028095647       68.6629260050      -17.4781629040
H                49.4041257369       64.4279877411      -19.0770706176
H                47.9519966515       65.6428817910      -16.8406028138
H                50.4413763159       65.5425310821      -16.7668081446
H                50.5202106160       66.3424607927      -18.3643910628
N                47.3394423573       67.8984133301      -18.0826323725
C                46.5147683126       68.8156893847      -18.8664803090
C                47.0950389454       69.2956275391      -20.2057495864
O                46.7030352707       68.8285345978      -21.2605082081
C                46.1993318136       69.9741843985      -17.8927301443
C                47.1346932654       69.7566481235      -16.7006227799
C                47.2197437301       68.2392200550      -16.6692455947
H                45.6065851592       68.2694238203      -19.1576809625
H                46.3329772537       70.9561604867      -18.3377053702
H                45.1663827951       69.8791156772      -17.5562202829
H                48.1256257262       70.1688324890      -16.8860437977
H                46.7444653790       70.1682841191      -15.7739824516
H                48.0405908595       67.8708341986      -16.0718195694
H                46.2886469076       67.8015457291      -16.2819289837
N                47.9424887920       70.3403595876      -20.1011807614
C                47.9260158001       71.5624822140      -20.9070906746
C                47.7605517554       71.2628613784      -22.4048052627
O                46.6845510672       71.2492602387      -22.9838061498
C                49.1778295606       72.4024899026      -20.5790658506
C                49.2025545374       72.8864149007      -19.1207233455
O                48.8228644399       72.1841257121      -18.1940619467
N                49.6838237075       74.1222263434      -18.9425871687
H                48.2642455828       70.5603000339      -19.1572831960
H                47.0354037863       72.1441604643      -20.6160783229
H                50.0797808941       71.7940246769      -20.6843082317
H                49.2293616443       73.2542970122      -21.2564161887
H                49.7739353090       74.4734863910      -18.0010418171
H                50.0422287979       74.6807570478      -19.6992028728
N                47.6004003956       68.6689650292      -23.9344772083
C                46.6752723033       67.6338603100      -24.3135550018
C                45.3388057270       68.3075845752      -24.4901035020
O                44.6240474213       68.1268062373      -25.4752524055
C                46.7796161833       66.4854568396      -23.3213990868
C                48.0736244259       65.7246690765      -23.6624623551
C                48.8344588933       65.1569513530      -22.4659116653
C                47.7910722634       64.6236994132      -24.6803712527
H                48.1315002702       68.5401394173      -23.0888785756
H                46.9567791472       67.2684753892      -25.3160064954
H                46.8021680807       66.8770114623      -22.3065918145
H                45.9032398119       65.8469804571      -23.4265824396
H                48.7543772934       66.4385107889      -24.1402232248
H                48.6295988166       64.0988934163      -22.3620907283
H                49.9011260882       65.3005633897      -22.6343343304
H                48.5631647911       65.6717999527      -21.5509211551
H                48.7283069260       64.2028608769      -25.0334143083
H                47.1780992663       63.8361133180      -24.2491843767
H                47.2665299198       65.0332088832      -25.5423036576
N                45.0230063772       69.1671897832      -23.5465962774
C                43.8241449591       69.9366103403      -23.7208857614
C                43.8484595298       70.4784936221      -25.1533575650
O                42.9961883266       70.2559518190      -26.0008352937
C                43.7446307065       71.0193474574      -22.6544833370
C                44.1661344896       70.5416697711      -21.2547023198
C                43.6909124661       71.5519033081      -20.2148045548
C                43.6227504504       69.1629722079      -20.8992036633
H                45.6249520599       69.3096004940      -22.7489954986
H                42.9561434049       69.2655042757      -23.6558866258
H                44.3734979172       71.8648488202      -22.9292636216
H                42.7119505362       71.3677385954      -22.6089400086
H                45.2505585694       70.5293978888      -21.2094257959
H                44.0987714062       71.3178181548      -19.2361119918
H                44.0009281721       72.5605156117      -20.4785470055
H                42.6089073201       71.5354291564      -20.1324438157
H                43.6707143302       69.0169675381      -19.8232451070
H                42.5758124571       69.0908028060      -21.1905918964
H                44.1748831439       68.3605027982      -21.3752742045
N                48.3608624667       56.6524921579      -28.4809381322
C                48.0976175489       57.7837465069      -27.6000751280
C                46.9681778302       58.6579803299      -28.1494315138
O                46.0759282008       59.0546647434      -27.4048417083
C                49.3241765303       58.6271625050      -27.3035308034
C                49.0959265499       59.4456435836      -26.0315666556
C                50.3953170301       59.5245044465      -25.2330163116
N                50.2353951055       60.2137885165      -23.9637076787
C                50.5581953216       61.4822217799      -23.6792074289
N                51.1142787845       62.2962285503      -24.5750449354
N                50.3054004715       61.9826711373      -22.4560259751
H                49.2505445097       56.1668797514      -28.3722218807
H                47.7039613303       57.3784418550      -26.6540855276
H                50.1610923848       57.9420853336      -27.1474002263
H                49.5524837916       59.2674607843      -28.1561837236
H                48.7446791245       60.4479103366      -26.2753859009
H                48.3335151989       58.9758719247      -25.4093087110
H                50.7521494068       58.5159702695      -25.0125636678
H                51.1649134930       60.0172461838      -25.8301409236
H                49.8103694733       59.6646255701      -23.2282283801
H                51.3224052080       61.9970599843      -25.5132135663
H                51.3900584947       63.2336537026      -24.3235959653
H                50.0336372930       61.3673200006      -21.7045373598
H                50.7122222745       62.8703818137      -22.2058614860
N                43.3600695790       58.1923581289      -27.7896324499
C                42.6691935360       58.7178384265      -26.6283384725
C                42.1115367988       60.0902330715      -27.0077865374
O                40.9725811843       60.4105507916      -26.7040321535
C                43.5149103509       58.6950688348      -25.3652351994
C                44.0806862384       57.3004883534      -25.0555496553
C                43.0638805964       56.1465748886      -24.9466518916
C                42.8733031422       55.3551096529      -26.2454100172
N                42.6593377350       53.8936738054      -26.0253410442
H                44.3720804493       58.2620873695      -27.8297629535
H                41.7814676603       58.0946373710      -26.4651244574
H                44.3535075361       59.3835449764      -25.4777915563
H                42.8988126660       59.0393627075      -24.5338627439
H                44.8313816215       57.0452318328      -25.8034525230
H                44.5985798820       57.3853089825      -24.0978293589
H                43.4515601288       55.4688751890      -24.1849669915
H                42.1108862065       56.5259743532      -24.5807409146
H                42.0402964076       55.7486310810      -26.8253213260
H                43.7915293583       55.4568646058      -26.8278117608
H                43.4632737554       53.3603760922      -26.5984210877
H                42.7832807552       53.6593683130      -25.0350940207
H                41.7352155044       53.5789783372      -26.3239974459
N                38.2819960635       61.1034196000      -26.2103199038
C                37.8994718048       62.3644622645      -25.6471726660
C                37.0620028945       63.1378618932      -26.6348053646
O                35.9227006340       63.4599039033      -26.2673390775
C                39.1256320921       63.0513763453      -25.0657263104
C                39.5529351636       62.2373432944      -23.8517268907
C                38.8802684690       62.3679661485      -22.6380812664
C                40.5833305027       61.2944512674      -23.8917901678
C                39.2524113906       61.6613793935      -21.5024685333
C                40.9633470768       60.5650432040      -22.7709932029
C                40.3254655924       60.7693496214      -21.5449067202
O                40.7203401311       60.1508171722      -20.3971715243
H                39.2456523441       60.9769113368      -26.4939058410
H                37.1967346108       62.1553231172      -24.8236739601
H                39.9202580482       63.0899656517      -25.8099042474
H                38.8698544338       64.0661974019      -24.7627475327
H                38.0623541445       63.0705304989      -22.5589423691
H                41.1175465903       61.1430113982      -24.8110289628
H                38.7329329934       61.8109182447      -20.5686472820
H                41.7760282456       59.8516378112      -22.8073291526
H                41.3791879643       59.4525596404      -20.6126620160
N                41.2226372800       72.7822805350      -14.3388196959
C                42.0116217507       71.8011209571      -13.6006250587
C                43.5110213090       72.2022977506      -13.4401911784
O                44.2998503547       71.4854322213      -12.8444816495
C                41.7545294211       70.4129202296      -14.2171610960
C                40.2404153332       70.1440914774      -14.1883305822
S                39.5859430611       68.8830226592      -15.3413182284
C                39.4397401068       69.8206481507      -16.8855505201
H                41.2880956116       72.7633328308      -15.3500856866
H                41.6206286422       71.8118845073      -12.5714956766
H                42.1197293146       70.4206156932      -15.2475446457
H                42.3122670905       69.6641691696      -13.6582799134
H                39.9272096868       69.8384018185      -13.1927150587
H                39.6883310966       71.0465462751      -14.4484209908
H                39.2003901113       69.0915704996      -17.6528351618
H                38.6485430493       70.5566606518      -16.7954136372
H                40.3833584667       70.3062887442      -17.1218060256
N                43.7896861588       73.4185302758      -13.9580730464
C                44.8457291483       74.3556937464      -13.6003356103
C                44.2194873512       75.5943106622      -12.8752355877
O                44.6257499964       76.7244321685      -13.0808190242
C                45.6255700575       74.8146954757      -14.8330976720
H                43.0524345512       73.8711189512      -14.4915403431
H                45.5119953731       73.8541951393      -12.8893830483
H                46.3276699959       75.5914738110      -14.5480530363
H                46.1585111050       73.9791239837      -15.2757618553
H                44.9354200907       75.2304006432      -15.5647697919
H                47.7302866986       56.0223461115      -28.3572847425
H                46.9551421090       58.9079628684      -29.1175941037
H                43.1899495535       57.3120255975      -27.8675671090
H                42.6812720315       60.7395922010      -27.5115071799
H                38.1293006687       60.4485546945      -25.6121258952
H                37.4334326822       63.3657997665      -27.5348521627
H                40.3496446735       72.6671905785      -14.1527062605
H                43.4688612200       75.4673349423      -12.2268240072
H                36.6201975374       63.6707430500      -16.0333233593
H                48.5634656186       71.0631316134      -22.9664433573
H                48.2151645728       68.7747817008      -24.5832204845
H                44.6027371367       71.0619120297      -25.4545024695
