 423 
 
N                51.5052786669       12.5382960902       -0.5772123540
C                51.7107740204       13.9565208905       -0.2830733396
C                51.6357141954       14.1454820530        1.2193263414
O                52.5087940630       14.7887616927        1.7994485493
C                50.8914550806       14.9244691004       -1.1402411697
C                49.4322223185       14.9089440188       -0.7657219831
C                51.0900087695       14.6258912093       -2.6275615366
C                48.6624934293       15.6685259333       -1.8265906299
H                50.9582848750       12.2458842379       -1.3748244656
H                52.7628424410       14.1891037086       -0.5223934030
H                51.3087649856       15.9185039957       -0.9417692404
H                49.0768548350       13.8837666181       -0.6951928427
H                49.2897509182       15.3844067852        0.2069646076
H                50.7656181448       15.4578120478       -3.2374233282
H                52.1424693140       14.4619074382       -2.8316315030
H                50.5553019256       13.7272188173       -2.9272891902
H                47.6455469828       15.8790850004       -1.4930571437
H                49.1392223268       16.6231710514       -2.0331644183
H                48.5940631548       15.1137546538       -2.7534965299
N                50.6068081201       13.5560027732        1.8315629320
C                50.5870194757       13.5515999951        3.2810660872
C                51.9635032678       13.3105778899        3.8746947534
O                52.4359376899       14.0393380933        4.7406199320
C                49.7071031326       12.4981880505        3.9535601928
C                48.2191078887       12.7743419628        3.6669083000
C                50.0038615836       12.4638451926        5.4628593361
C                47.8079932679       14.2007366639        3.9459897711
H                49.9982145701       12.9374999909        1.3106944515
H                50.2926240326       14.5546003713        3.6244074393
H                49.9574054275       11.5164856532        3.5404610179
H                47.9991438778       12.5357087082        2.6237914916
H                47.6429801788       12.0892492256        4.2872450307
H                49.2373664215       11.8882168289        5.9786410585
H                50.9516155038       11.9813621731        5.6771731102
H                50.0328589409       13.4705727378        5.8685775904
H                46.7325990494       14.2646313537        4.0594160450
H                48.2478177067       14.5634376162        4.8743152823
H                48.0953457875       14.8698869543        3.1395693885
N                52.5830153908       12.1866226178        3.5122525251
C                53.9489253771       12.0256433923        3.9640342191
C                54.9926280855       13.1208401085        3.5657495965
O                55.8522772233       13.4812169743        4.3677063985
C                54.3552689233       10.5748057329        3.6866468266
S                53.3776280736        9.6337052340        4.9327765745
H                52.2550397957       11.6244392241        2.7369576967
H                53.9308172161       12.1385040324        5.0582950954
H                54.0301172474       10.2615519020        2.6995280290
H                55.4190920604       10.4031129575        3.8550738315
H                54.1441029663        8.5479413540        4.9316928051
N                55.0025647427       13.6740196234        2.3594289722
C                56.0818655653       14.5876207721        2.1745833031
C                56.0400513084       15.7632635972        3.1486111174
O                57.0672995006       16.3509728444        3.4845907669
C                56.0511976401       15.1916246488        0.7846760745
O                57.2369414742       15.9685287444        0.6681015337
H                54.2591987364       13.5083367547        1.6840131644
H                57.0478024399       14.1020105409        2.3584138128
H                56.0303294054       14.3865293088        0.0460696205
H                55.1399472291       15.7907510940        0.6592695063
H                57.3990312981       16.2008226103       -0.2585740469
N                54.7995047880       16.1617624990        3.4555209654
C                54.4875822467       17.1635309505        4.4889614316
C                55.0925659339       16.8127801671        5.9061318319
O                55.8079373128       17.6405988141        6.4957261420
C                52.9490490204       17.2542213147        4.5664564269
C                52.3654006297       17.9961078869        5.7856653803
C                52.6073951824       19.4888286850        5.5774270397
C                50.8754011135       17.6546307172        5.9474268226
H                54.0160334594       15.6347284455        3.0891656916
H                54.9525976506       18.1097318763        4.1916720135
H                52.5953416533       17.7461569505        3.6643044096
H                52.5673687635       16.2298459877        4.5666706364
H                52.8876241085       17.6645456263        6.6834373607
H                52.2036018784       20.0736400305        6.4009116911
H                53.6720690935       19.6825143023        5.5098306466
H                52.1341808540       19.8196553769        4.6565782325
H                50.4529034459       18.1815084991        6.7962873454
H                50.3328851396       17.9653504678        5.0569431344
H                50.7467072794       16.5843489530        6.0736716566
N                54.6989722901       15.6168514483        6.4166205633
C                55.0058539477       15.2094435895        7.7684989739
C                56.4440246689       14.7844603278        7.9464824655
O                56.9950641989       15.1875093850        8.9596766135
C                53.9478279896       14.3147159783        8.4527741727
C                52.9541979411       13.7409890916        7.4615680586
C                54.5370838920       13.2465478133        9.3645251831
H                54.1722066077       14.9936025647        5.8167228057
H                55.0107269125       16.1557709663        8.3406340535
H                53.3657640902       14.9780876148        9.1046123417
H                52.2082992411       13.1520563579        7.9920875128
H                52.4387658948       14.5276537955        6.9253289072
H                53.4401424793       13.0695865986        6.7602884948
H                53.7256414899       12.7170107720        9.8542580988
H                55.1263709321       12.5191267822        8.8043481828
H                55.1786787736       13.6814741055       10.1236638349
N                57.1068415343       14.1515554472        6.9803866709
C                58.5406066636       14.0110380045        7.1597290959
C                59.3732359487       15.2825350882        6.8139255519
O                60.5579820373       15.2833052934        7.1070206667
C                59.2303607550       12.8557593125        6.3926610102
C                58.7109134471       11.4254671248        6.5384221722
C                58.3750376513       10.7478031413        5.1107851483
O                58.4228791332       11.4332972960        4.0570970386
O                58.0367906609        9.5442186348        5.1545856438
H                56.6853982821       13.8411738083        6.1120392178
H                58.7020067003       13.8532904204        8.2365366622
H                59.1558244726       13.0996783282        5.3234277418
H                60.2857703329       12.9039650070        6.6598170007
H                59.4148294281       10.7703834708        7.0478567897
H                57.7709679508       11.4054064638        7.0928527837
N                58.8322257697       16.3747327470        6.2237255735
C                59.7460251512       17.3981125100        5.6970575727
C                59.5219163337       18.8265596092        6.2275923640
O                60.4346413109       19.6404615851        6.2829519326
C                59.6796785098       17.4143763181        4.1656278156
C                60.4359283010       16.2131638852        3.5759313696
O                61.6223169422       16.0361038882        3.8288661179
N                59.7167852974       15.4294699036        2.7324841317
H                57.9319672223       16.2912206151        5.7690346300
H                60.7562992639       17.0984035469        5.9982540138
H                58.6510252624       17.4468896576        3.8315360418
H                60.2030031494       18.3044524546        3.8138128472
H                60.1302966401       14.5579357977        2.4453332331
H                58.7186365892       15.5926436480        2.6602022154
N                58.2453463728       19.0612758748        6.5473047173
C                57.7531916716       20.2320409184        7.2217441710
C                57.4584566118       19.9613141858        8.6905850820
O                58.2694832033       20.3101587412        9.5427534569
C                56.5882090740       20.7486393284        6.4115818677
C                57.2779884891       21.4468122011        5.2520907309
C                55.7296218080       21.6886691779        7.2007614857
C                56.3574537162       21.8203229709        4.1045230184
H                57.5764389992       18.3068324665        6.4546118401
H                58.5744075364       20.9599970245        7.2250306703
H                55.9959616064       19.9090966383        6.0437543651
H                57.7566639039       22.3547238019        5.6203915577
H                58.0524076313       20.7843339584        4.8549065958
H                54.9770013477       22.1239997644        6.5465264536
H                55.2037769335       21.2037979048        8.0133146105
H                56.3388795126       22.4867231702        7.6217841901
H                56.9322123537       22.1597223852        3.2496224266
H                55.7550861659       20.9670377791        3.7986689843
H                55.6769971481       22.6185709009        4.3903848707
N                56.2943716071       19.3747724653        8.9760601580
C                55.7622839742       19.2775673260       10.3288908743
C                56.6923320733       18.6516691010       11.3384887094
O                56.6740968289       18.9230433770       12.5242696942
C                54.5750669144       18.3201518101       10.3422304235
C                53.5482207960       18.7208721055        9.2139526614
C                54.0676944202       18.1048643506       11.7760943615
C                52.0618534880       18.8638947012        9.5730379680
H                55.8114786838       18.9014485241        8.2242298450
H                55.4727241744       20.2768325184       10.6692177792
H                54.9807122447       17.3451713756       10.0390551007
H                53.8497707105       19.6656462272        8.7666743188
H                53.6257121164       17.9564676460        8.4399126052
H                53.1499311384       17.5232892900       11.7519543142
H                54.7844737347       17.5420659764       12.3613806751
H                53.8990828020       19.0560330818       12.2735346611
H                51.4942333211       19.0111932028        8.6608754560
H                51.6748999924       17.9981652125       10.0954776139
H                51.9229492536       19.7376137838       10.2074635408
N                57.4766815934       17.6871758002       10.8658793804
C                58.3618965593       17.0378424433       11.7853474927
C                59.6692780641       17.7702607508       11.9895510190
O                60.2210782342       17.5997383786       13.0735928890
C                58.7684113056       15.6231092988       11.4064537393
C                57.6962708310       14.6387140128       11.8038982096
S                58.2438555211       12.8722602879       11.5788824958
C                58.9160898821       12.4792534912       13.2464429572
H                57.3738774847       17.2728125736        9.9495546135
H                57.8807909243       17.0010578295       12.7708273215
H                58.9308405678       15.5515118799       10.3312169836
H                59.6888649125       15.3687390703       11.9348633526
H                57.4290995429       14.7262390073       12.8544458363
H                56.8167300289       14.7578323716       11.1791729282
H                59.5871012023       11.6370389759       13.1234239846
H                59.4529118068       13.3377421771       13.6298000011
H                58.1008417959       12.1904681686       13.9029444138
N                60.1611626255       18.5967058538       11.0529987734
C                61.1933885139       19.4668237688       11.5285150935
C                60.5401594210       20.3537237403       12.5788341131
O                61.1692850408       20.7383150031       13.5652944536
C                61.6899399338       20.1889164850       10.2928493360
C                61.5970770538       19.1238474670        9.2322494129
C                60.2913563603       18.4234778461        9.6233651308
H                61.9960057527       18.9124404644       12.0298982742
H                60.9816387320       20.9832090639       10.0510359485
H                62.6957804245       20.5760264811       10.4250429520
H                61.5377243283       19.5090514868        8.2172249057
H                62.4283968822       18.4212438475        9.2889606679
H                59.4593585530       18.8765736519        9.1086621545
H                60.3090711038       17.3615501705        9.3558609479
N                59.2812340741       20.7984740389       12.3649721927
C                58.8287963907       21.9076313208       13.2508258198
C                58.9182958560       21.4811888041       14.6752868022
O                59.6340805668       22.0692119290       15.4721886875
C                57.4432007252       22.4598147939       12.9598334537
C                57.4341341110       22.9554904129       11.5149201145
C                55.9913945855       23.2694564387       11.1475000219
C                58.3923908578       24.1157487633       11.3194764581
H                58.7201966733       20.4729087234       11.5848637504
H                59.5913208361       22.6920853751       13.1801663596
H                56.7053763311       21.6693874937       13.0905350961
H                57.2280292221       23.2653518201       13.6590430861
H                57.7547592523       22.1229097285       10.8813978492
H                55.9188699194       23.6232616258       10.1208976310
H                55.3703354611       22.3848397565       11.2515061818
H                55.5891764909       24.0405226619       11.8016965803
H                58.5731704964       24.2680789067       10.2634158731
H                57.9403703532       25.0220188477       11.7253540663
H                59.3063892802       23.9463988779       11.8659642417
N                58.1308658818       20.4684158147       14.9774985125
C                58.0639397419       20.0489047635       16.3289946019
C                59.4127612815       19.6651148421       16.9623430664
O                59.4823471070       19.4183725608       18.1577150305
C                56.9836042561       18.9961215043       16.4229907029
C                55.6431881511       19.6181871341       16.0353008417
C                56.9411464319       18.4597940872       17.8350018114
C                54.5977726693       18.5577432679       15.6840855822
H                57.6776609161       19.9199631296       14.2567264675
H                57.7577487688       20.9084883078       16.9515836782
H                57.2162256271       18.1683804419       15.7418063199
H                55.2792514071       20.2247744942       16.8667213031
H                55.7655713980       20.2580729664       15.1634193923
H                56.0852679456       17.7980809858       17.9662945294
H                57.8212830315       17.8741063133       18.0865932413
H                56.8646654456       19.2667253144       18.5592608224
H                53.6591573060       19.0254869560       15.3961909415
H                54.9450774372       17.9483261904       14.8523645199
H                54.4110888086       17.8923273163       16.5221681439
N                60.5047024184       19.7200880897       16.1958322260
C                61.7930687667       19.4507227069       16.7568607609
C                62.7695072109       20.6212045546       16.6538830759
O                63.9549326733       20.4240441290       16.9212590772
H                60.4594988139       19.7750038748       15.1871206688
H                61.6543586228       19.2525527715       17.8251451739
H                62.2457503623       18.5724253591       16.2820905553
N                62.2566294017       21.7840831456       16.2186248226
C                62.8901179319       23.0756431215       16.4184296329
C                62.1552118340       23.9390415442       17.4342528687
O                62.8418881174       24.7522573666       18.0349686171
C                63.1233382474       23.9156116977       15.1516705538
C                64.0894763881       23.1543165347       14.2516757958
C                64.5958411749       23.9663106450       13.0681851650
C                65.1555469631       23.0336067645       11.9878672451
N                66.6014700515       22.7134306052       12.2004078813
H                61.3093603427       21.7632406886       15.8639239811
H                63.8619365132       22.8518164691       16.8772849375
H                62.1665045145       24.0838476509       14.6564628631
H                63.5412034420       24.8638402386       15.4846644869
H                64.9197203317       22.8186896689       14.8718778961
H                63.5612033501       22.2563935485       13.9189355069
H                63.7710120331       24.5553948533       12.6835093647
H                65.3569234444       24.6695770209       13.4049604989
H                64.6108105394       22.0866253117       12.0152349528
H                65.0864740751       23.4573972662       10.9852106644
H                66.9564039334       22.0869815059       11.4648606417
H                67.1759434235       23.5703570087       12.2105046046
H                66.7219642134       22.2416194532       13.1112103192
N                51.0141861863       11.9273356613       12.2332268553
C                50.4999453467       11.6624238170       10.8966887253
C                48.9748365411       11.8608441342       10.8207806007
O                48.4451206618       12.2386188723        9.7742397807
C                50.8151632467       10.2116653857       10.4208792055
C                50.6611920967       10.1420442215        8.8992181504
C                49.8942234152        9.1602680182       11.0276477888
C                50.6501906452        8.7089445267        8.3414546408
H                51.3287909027       11.1120557343       12.7465442289
H                50.9565362558       12.3693041309       10.1898482162
H                51.8483384012        9.9905147245       10.7105486489
H                49.7181427413       10.6172876842        8.6214732642
H                51.4674314093       10.7054886994        8.4224742510
H                50.3226959796        8.1768432479       10.8707781102
H                49.7912565363        9.3416191818       12.0736575964
H                48.9146223510        9.2079226908       10.5571031021
H                50.7113658126        8.7511041589        7.2563292725
H                51.5056275132        8.1525665014        8.7166622257
H                49.7376628658        8.1864462808        8.5974052379
N                47.2976533005       14.0809049809       12.9657187144
C                47.3203540294       15.5221735015       12.9540624642
C                47.6587811850       16.1297291526       11.5897226871
O                46.9520687143       17.0097586295       11.0993209239
C                48.3596179218       16.0232323369       13.9391579621
C                48.8386006560       17.4163574326       13.6243533397
C                48.0770974225       18.5252894355       13.9656429721
C                50.0975697021       17.6227815853       13.0789574830
C                48.5926834223       19.8063155618       13.8774767487
C                50.6257563947       18.8987761700       13.0172836344
C                49.8955512062       19.9884389512       13.4565569079
H                47.9075142888       13.6062323118       13.6220596155
H                46.3183390866       15.8953911222       13.2083418241
H                47.9509713210       15.9877283808       14.9501042352
H                49.2182072363       15.3511405702       13.8778431182
H                47.0776995105       18.3739455930       14.3515661733
H                50.6995007175       16.7789014553       12.7730887401
H                47.9935155475       20.6486178086       14.1842062484
H                51.6304048644       19.0346762786       12.6507120577
H                50.3444827489       20.9685914940       13.4471664378
N                48.7607192376       15.7374886747       10.9669463171
C                49.0731058949       16.3799020002        9.7048934733
C                47.9514888368       16.2626597883        8.6754530550
O                47.8645790506       17.1134378489        7.7961419298
C                50.3336839758       15.8162308544        9.0671352759
H                49.3865519386       15.0278924096       11.3354677598
H                49.1989973036       17.4566848237        9.8871725992
H                50.6251916145       16.4295075626        8.2260377214
H                51.1463779051       15.7998133637        9.7909587681
H                50.1490563327       14.7961701534        8.7351663392
N                45.6798721494       19.5907231788        9.7447639613
C                46.0941245414       20.8726804711        9.1924226973
C                46.0769983412       20.8622231258        7.6558154475
O                45.8215750079       21.8840839320        7.0282755575
C                47.4379407398       21.5096660502        9.6794804220
C                48.3094062449       21.9690603153        8.4869939522
C                48.2027441496       20.5903458076       10.6023305615
C                49.6876272889       22.4330848039        8.8930505715
H                46.3591383602       18.9404301224       10.1208845558
H                45.2866757140       21.5744729131        9.4474441553
H                47.1854466771       22.4065211320       10.2523487988
H                48.4210575932       21.1606860995        7.7607176379
H                47.7938437210       22.7863369358        7.9847662744
H                49.0731641139       21.0951612463       11.0055061474
H                47.6034239081       20.2456287162       11.4380431127
H                48.5707029490       19.7148324688       10.0602504400
H                50.1570518388       22.9449038528        8.0539505732
H                49.6364397655       23.1285920441        9.7259867239
H                50.3326972341       21.6029642647        9.1675014878
N                46.3801986241       19.7358019304        7.0093227388
C                46.3119718339       19.7911705374        5.5668441355
C                44.8631701991       20.0327416297        5.1150263570
O                44.6733094528       20.7850869785        4.1590194431
C                46.8803745303       18.5329169148        4.8978702897
C                46.5494716126       18.4860636111        3.4198219576
C                47.5605498393       18.4859831580        2.4700378417
C                45.2227134092       18.3837289020        2.9981251089
C                47.2231366491       18.4237094720        1.1356235328
C                44.8843741238       18.3916987154        1.6695314135
C                45.8948206324       18.4056515363        0.7391272273
H                46.6931610059       18.8761343366        7.4403558002
H                46.8706682599       20.6738428453        5.2218844361
H                47.9575828414       18.4921337655        5.0556530127
H                46.4269670543       17.6680859480        5.3900972045
H                48.5967553773       18.5341631370        2.7716179436
H                44.4484113070       18.2393726487        3.7320244540
H                47.9992828247       18.3965862433        0.3859669142
H                43.8526591526       18.3534617725        1.3556602149
H                45.6617008975       18.3845895690       -0.3154009323
N                62.9773583732       23.9689571575        6.3196968166
C                61.9236344247       23.1144948299        5.8451035675
C                62.1818650721       22.7944057322        4.3750411393
O                63.2786036967       22.9154094417        3.8664095667
C                60.5328696437       23.7077229942        6.1329917930
C                60.5193304670       24.5655015205        7.3722177622
C                60.8687152172       23.7514164020        8.6054381329
C                61.3738631998       24.7450868153        9.6413674933
N                61.7637321409       24.1555958831       10.9663417020
H                63.1314614920       24.8246342899        5.8077473863
H                62.0426698182       22.1579305086        6.3720717179
H                60.2165205929       24.3179671391        5.2832807956
H                59.8240947239       22.8905341455        6.2588099076
H                61.2345444014       25.3781205163        7.2447647285
H                59.5307174571       25.0135247691        7.4743691111
H                59.9899099302       23.2154961175        8.9599675258
H                61.6437632301       23.0191648004        8.3801350634
H                62.2366822974       25.2822946001        9.2369908987
H                60.5959132602       25.4862270726        9.8342882500
H                62.0225827631       24.9171450427       11.6111269958
H                60.9570555461       23.6459543519       11.3652336531
H                62.5260651892       23.4685633229       10.8534254432
N                61.0275000876       22.4680947263        3.7359689175
C                60.9916136799       21.9790048164        2.3817607374
C                59.7008564555       22.1832538821        1.5125803452
O                58.5520851676       21.9263475852        1.7918457705
C                61.3964850810       20.5005243117        2.4624960677
C                62.8927575191       20.2875249276        2.5648930096
C                63.4467447920       19.3556140131        3.4471208854
C                63.7372981249       20.8907093921        1.6384595405
C                64.7888906544       19.0012050718        3.3816140836
C                65.0870152502       20.5718259856        1.5983694929
C                65.6444175481       19.6070326444        2.4475095461
O                66.9831178274       19.2914142240        2.3625585529
H                60.2374935500       22.2018587676        4.3080687816
H                61.7924183894       22.5035309826        1.8614961826
H                60.9060889867       20.0628305566        3.3354083307
H                61.0378911621       19.9733414404        1.5789827998
H                62.8182470595       18.8622308765        4.1722622968
H                63.3657743758       21.5837606266        0.8968164029
H                65.1761242512       18.2455064258        4.0450251431
H                65.7200310741       21.0603991489        0.8681705753
H                67.3996744741       19.8295679547        1.6779208924
N                58.1861341557       18.9584653205       -0.0880428560
C                56.7119067652       18.9720480614       -0.0656201375
C                56.0899371378       19.1512869893       -1.4329358036
O                55.2389146651       18.3785679547       -1.8729641057
C                56.0591135961       20.1545720448        0.7077909314
C                54.5363899277       19.9853978421        0.7691219798
C                53.9329112148       18.8190008557        1.2443200717
C                53.6732340612       21.0228150087        0.4539880167
C                52.5564902572       18.6833955193        1.3405189197
C                52.2885252078       20.8856609143        0.5622807326
C                51.7030338963       19.7089607607        0.9793938840
H                58.5969319571       19.6979328337        0.4673654894
H                56.3789050662       18.0208277678        0.3589309197
H                56.4597549517       20.1645990584        1.7242711481
H                56.3104577936       21.1154543910        0.2649658437
H                54.5482437956       17.9910276745        1.5601124263
H                54.0792731089       21.9680640258        0.1197003923
H                52.1574166484       17.7261778339        1.6472016343
H                51.6705775018       21.7331957149        0.2987553210
H                50.6331871513       19.6045275620        1.0447370099
H                52.3014281177       12.1412619012       -0.7132634646
H                61.1722293374       23.8196616911       17.5738732896
H                51.7206032223       12.4823229632       12.1787836186
H                48.4068616255       11.6828974907       11.6243597737
H                46.4677949862       13.7951129931       13.1648621748
H                47.3042048823       15.5020678836        8.7256868757
H                45.1183401829       19.7281477295       10.4345438852
H                44.1086269459       19.5843647707        5.5942159554
H                62.8030317549       24.2189100961        7.1665343209
H                59.7726414400       22.5743524566        0.5950353485
H                58.4843405663       18.1743432475        0.2378796981
H                56.3677583759       19.9177465080       -2.0120343841
