 306 
 
N                44.8187009230       16.6910670535        9.4165724995
C                43.9907298519       17.7348327159        9.9983386437
C                44.3763521042       19.1159267780        9.4457237365
O                43.5522738951       19.8478038023        8.9093821959
C                44.1317894602       17.6747797154       11.5253871988
C                43.3809464197       18.7451975782       12.2632017078
C                41.9920544214       18.7399603509       12.3092561828
C                44.0736317110       19.7156733044       12.9758451989
C                41.3080897212       19.6809625266       13.0575728154
C                43.3908060746       20.6476814821       13.7393221665
C                42.0055354993       20.6324691206       13.7841780404
H                45.2242609948       15.9940636987       10.0316569815
H                42.9459935053       17.5718049221        9.6985285663
H                43.7743124772       16.6924296494       11.8465222167
H                45.1916623358       17.7474255064       11.7663174946
H                41.4478929860       17.9779355076       11.7705263923
H                45.1534733030       19.7134380481       12.9480215386
H                40.2291616103       19.6569995946       13.0916554146
H                43.9434207489       21.3448695897       14.3523459268
H                41.4668337361       21.3402030838       14.3946271218
N                45.6438635556       19.4847822969        9.6642660137
C                46.1117457237       20.7768745923        9.1978974386
C                45.9466408636       20.9016648183        7.6761913435
O                45.4760894666       21.9209586623        7.1778422261
C                47.5357850958       21.1400592346        9.6911982337
C                48.0626368772       22.3528052734        8.9077120544
C                48.5157598928       19.9770006160        9.6123596010
C                49.3740270073       22.9144740968        9.4521021127
H                46.3000442169       18.8156196837       10.0455615014
H                45.4073074986       21.5229221958        9.5908948742
H                47.4507577169       21.4201027080       10.7461597438
H                48.2078420693       22.0659222470        7.8643267799
H                47.3091754184       23.1409825984        8.9193008245
H                49.4863071557       20.2960862839        9.9799998927
H                48.1931287527       19.1501530122       10.2385432885
H                48.6278984532       19.6220391053        8.5915543976
H                49.6063596602       23.8504829951        8.9508597966
H                49.3066782447       23.1032737579       10.5196727084
H                50.2040824291       22.2370698644        9.2714119122
N                46.3166770315       19.8472608776        6.9527964860
C                46.2064621631       19.8754847358        5.5086161648
C                44.8035381541       20.3228544895        5.0832900031
O                44.6251826937       21.2283242375        4.2746314488
C                46.5209056098       18.4868235820        4.9394079755
C                46.4476251609       18.4731910542        3.4398778591
C                47.5434835072       18.8661156520        2.6820238595
C                45.2882029895       18.0769096559        2.7863194493
C                47.4855904824       18.8552513093        1.3011071965
C                45.2256511305       18.0704873795        1.4046096488
C                46.3261252631       18.4557583129        0.6578947766
H                46.6891050611       19.0061046674        7.3826285433
H                46.9046262366       20.6209128918        5.1008809171
H                47.5235274500       18.2081114742        5.2697386344
H                45.8056944761       17.7776527011        5.3571266015
H                48.4494501318       19.1754804205        3.1839354956
H                44.4311437080       17.7683290550        3.3679003237
H                48.3454418381       19.1560070349        0.7200219538
H                44.3166731372       17.7670839989        0.9060020662
H                46.2830513086       18.4468399058       -0.4205783905
N                43.8126811748       19.6181042589        5.6315064169
C                42.4353901840       19.8025237319        5.2268527422
C                42.0286756791       21.2616432866        5.3907364502
O                41.4893852009       21.8861981684        4.4817977885
C                41.5021345105       18.8741012320        6.0222034109
C                40.0394363580       19.2235243989        5.7531805492
C                41.7625512900       17.4189628505        5.6402942069
H                44.0195991175       18.8969128886        6.3137193286
H                42.3396022816       19.5858284016        4.1518727327
H                41.7229310158       19.0125813975        7.0858530448
H                39.3924727518       18.5068563896        6.2514055383
H                39.7971344013       20.2205088265        6.1102053457
H                39.8392474219       19.1932183229        4.6840957628
H                41.0869505511       16.7683646606        6.1888296945
H                41.5911029406       17.2736785195        4.5762926186
H                42.7823689551       17.1299376918        5.8749853975
N                42.2331347244       21.7999029749        6.5967386176
C                41.6851316821       23.1150359773        6.8756895427
C                42.3388555716       24.1861083365        5.9932141238
O                41.6667571300       25.0426723141        5.4322719259
C                41.7292346048       23.4331151060        8.3706173649
C                43.1232541016       23.5918611897        8.9778783157
C                43.0085719206       23.6474068971       10.5049638148
C                44.3510676316       23.9562555349       11.1602687120
N                44.2228025370       23.9382950684       12.6444012019
H                42.6473554179       21.2637397707        7.3495647712
H                40.6308018466       23.1115635138        6.5594707546
H                41.1582886673       24.3503492326        8.5217394593
H                41.2052760024       22.6201897172        8.8778605350
H                43.7531012672       22.7526309949        8.6838325310
H                43.5825952362       24.5059988466        8.6015775413
H                42.2807089680       24.4171231216       10.7652815293
H                42.6338348365       22.6842676977       10.8576744648
H                45.0904446401       23.2109226038       10.8660218110
H                44.7037049156       24.9394861471       10.8469721191
H                45.1297288058       24.1394712363       13.0916137157
H                43.5404608037       24.6494303209       12.9486804916
H                43.8873247489       23.0123180870       12.9635803747
N                43.6731130462       24.1330281410        5.9067379169
C                44.3828386439       25.0854490653        5.0736794753
C                43.8456141284       25.0389997272        3.6381715893
O                43.5540875137       26.0567551917        3.0195063652
C                45.8997081350       24.8374734233        5.1478535495
C                46.4051762801       25.2189897514        6.5480495537
C                46.6210387300       25.6218120066        4.0553303439
C                47.9219454705       25.1491745569        6.6892380612
H                44.1924788372       23.3537234935        6.2936689647
H                44.1559772368       26.0995225288        5.4315222016
H                46.0684684368       23.7674408608        4.9846450328
H                46.0771533466       26.2348942833        6.7773259321
H                45.9516577242       24.5396682216        7.2704050078
H                47.6775213786       25.3748661507        4.0455425087
H                46.2121922577       25.3849105654        3.0763030470
H                46.5095896984       26.6911739223        4.2193059552
H                48.2043697137       25.3366531015        7.7213015486
H                48.2899016298       24.1688572323        6.3992476682
H                48.4089745553       25.8988303656        6.0730648728
N                43.7468089114       23.8178026393        3.1024701312
C                43.3477422191       23.6515145395        1.7201905623
C                41.9108272035       24.1279476364        1.4766905384
O                41.6316212626       24.8702901924        0.5431561246
C                43.4649086172       22.1915445690        1.3081063877
H                43.9539484613       22.9798132800        3.6334823504
H                43.9865197218       24.2883636254        1.0919039124
H                43.1656983428       22.0852307554        0.2700301942
H                44.4892922555       21.8508601367        1.4292871690
H                42.8143010679       21.5841969566        1.9318302460
N                41.0060926187       23.6370495052        2.3274110252
C                39.5875573433       23.8110037132        2.1041488769
C                39.2267486224       25.2607782306        1.7887846028
O                38.3545616054       25.5294911156        0.9745948835
C                38.7760277112       23.3280632164        3.3057350305
C                38.3965803865       21.8540212642        3.1795982863
O                38.6440572288       21.1750656026        2.1983900918
N                37.7548678924       21.3636429203        4.2519051847
H                41.2849625153       23.0166820429        3.0807019722
H                39.2791925671       23.2242463907        1.2236089821
H                39.3492280301       23.4838234434        4.2202351910
H                37.8533703016       23.9090741158        3.3683109151
H                37.3986684080       20.4202728887        4.2140014775
H                37.4849865438       21.9501320692        5.0208862679
N                39.8704363329       26.2045646357        2.4920017506
C                39.5521093674       27.5991260970        2.2851455286
C                40.3212345990       28.1905050705        1.1020488620
O                39.7740104533       28.9491725601        0.3040535616
C                39.7726584270       28.3897116719        3.5809224884
O                38.9002968661       27.8205493994        4.5371741296
C                39.4944423976       29.8751685087        3.3701590536
H                40.5427159251       25.9590496436        3.2042991594
H                38.4883407290       27.6561347162        2.0160557353
H                40.8183154127       28.2379654634        3.8990423452
H                38.8962065181       28.3680330204        5.3288628723
H                39.6219470097       30.4204336842        4.3009234964
H                40.1714670064       30.2831918143        2.6254588438
H                38.4755670959       30.0078587299        3.0141168968
N                41.6093970685       27.8613819157        1.0101673423
C                42.4690570068       28.3673235182       -0.0433011540
C                42.3703754104       27.5361326917       -1.3361289215
O                43.3572744937       27.1232012972       -1.9271095822
C                43.9084743565       28.4234121883        0.4561283173
C                44.2170505473       29.6505876679        1.3195599079
C                45.5171026489       29.4054545549        2.0821770571
C                44.3242422815       30.9080773559        0.4596525479
H                42.0149209570       27.1638406378        1.6209264219
H                42.0909489383       29.3686624731       -0.2929240578
H                44.0874722821       27.5119071574        1.0296792737
H                44.5721587057       28.4034833778       -0.4088907207
H                43.4065399478       29.7808972120        2.0454377750
H                45.7685020108       30.2600978353        2.7046836491
H                45.4111317655       28.5303906869        2.7185650035
H                46.3328187958       29.2261699895        1.3862817553
H                44.5886444110       31.7637944171        1.0750469239
H                45.0904064350       30.7688542472       -0.2982270535
H                43.3776780135       31.1223028460       -0.0306727661
N                41.1289056915       27.3834981296       -1.8150704439
C                40.8677604119       26.6025544593       -3.0091995419
C                40.8283866223       27.5243883626       -4.2447606732
O                39.7823682119       27.8897315073       -4.7613532768
C                39.5643040467       25.8143237081       -2.9101469467
C                39.6462039232       24.7356967050       -1.8457139255
S                38.1708892495       23.6774204772       -1.7887363554
C                38.5935791789       22.5899200020       -3.1901640193
H                40.3399558651       27.7791050424       -1.3228914547
H                41.7135371508       25.9112551204       -3.1168764684
H                38.7385485623       26.4966208316       -2.6964147065
H                39.3707216942       25.3674904070       -3.8885666383
H                40.5050854645       24.0857986732       -2.0124218171
H                39.7316421451       25.1728795960       -0.8552855726
H                37.7870615877       21.8774853640       -3.3155528180
H                38.6859446739       23.1730308149       -4.1003065296
H                39.5233855935       22.0847980094       -2.9536089479
N                42.0338175413       27.9081977220       -4.6880089557
C                42.1804871380       28.5826358331       -5.9649344824
C                42.0942186886       27.5474904862       -7.1015776621
O                42.4507330406       26.3888612980       -6.9441490529
C                43.5174987142       29.3279625056       -6.0254727318
C                43.4940758901       30.5872553950       -5.1590497681
C                44.8086194830       31.3655596379       -5.2427290477
C                44.6827138892       32.6778790184       -4.4746505782
N                45.9544028760       33.4519235742       -4.5208782433
H                42.8626059598       27.5277091071       -4.2494242515
H                41.3354246104       29.2733491137       -6.0589377920
H                44.3028608376       28.6470947036       -5.6922440094
H                43.7232779779       29.5976786880       -7.0628946096
H                42.6740909378       31.2233304453       -5.4955289852
H                43.2928983735       30.3051972171       -4.1248732027
H                45.6084592360       30.7537242010       -4.8250538644
H                45.0328294258       31.5633853750       -6.2917434120
H                43.8872549293       33.2835251428       -4.9106468879
H                44.4304674116       32.4741389048       -3.4335168279
H                45.8540945627       34.3349095856       -3.9996782567
H                46.7217099759       32.9043619075       -4.1030626013
H                46.2033156411       33.6695583597       -5.4974971324
N                41.6122871382       28.0170156249       -8.2674016879
C                41.6854346260       27.2527194535       -9.4989438577
C                42.5611735719       28.0608013656      -10.4668279306
O                42.3287549873       29.2594825126      -10.6439732471
C                40.2790147474       27.0229683933      -10.0729974407
C                40.1933385074       25.8343619396      -11.0274732886
C                40.3284950752       24.4939548273      -10.3019615745
C                39.9654436473       23.3270925620      -11.2200436403
N                39.9997719883       22.0583081024      -10.4579127579
H                41.4147627909       28.9992572265       -8.3891001074
H                42.1652430019       26.3038502607       -9.2460781213
H                39.6008102437       26.8588741940       -9.2326814835
H                39.9742043708       27.9339458944      -10.5919423236
H                39.2196149695       25.8744337813      -11.5189579222
H                40.9589005798       25.9282008094      -11.8011788161
H                41.3506225260       24.3672959819       -9.9495008904
H                39.6718580559       24.4774818130       -9.4308937282
H                38.9624003133       23.4804425377      -11.6259139931
H                40.6727292650       23.2791356268      -12.0486885154
H                39.7737563411       21.2539996362      -11.0489903831
H                40.9331563665       21.9285311504      -10.0584759200
H                39.3349591625       22.1006633482       -9.6102949795
N                35.8144317020       21.0246567865      -11.3395694993
C                35.6215014904       21.2865087878       -9.9261832914
C                34.1315726043       21.1002749979       -9.6404997750
O                33.2898554584       21.6168582689      -10.3635580176
C                36.0463190533       22.7200777724       -9.5651009566
C                36.3024606429       22.8665352415       -8.0682372048
C                37.5249514529       22.0314034492       -7.5950248118
O                38.6069099688       22.2296293646       -8.2015361866
O                37.3596628502       21.2422032143       -6.6547198052
H                35.0686040655       21.3748670207      -11.9263342723
H                36.2272422454       20.5684792765       -9.3637564549
H                36.9658815948       22.9521978828      -10.1036019460
H                35.2638045856       23.4156232735       -9.8773310796
H                36.5077279086       23.9126545158       -7.8307983278
H                35.4328043070       22.5642374112       -7.4828904911
N                32.7763157637       21.3333411808       -6.1244597743
C                32.4779081937       22.3598081062       -5.1245202389
C                33.7017696339       22.4374062029       -4.1953950347
O                34.6660276988       23.1289708976       -4.4742232528
C                31.1525919627       22.0556755493       -4.4281505597
H                33.6787653513       20.8879776060       -6.0663482373
H                32.4082032312       23.3265634664       -5.6412050166
H                31.0073293557       22.7308389740       -3.5909580270
H                30.3522433123       22.1969540519       -5.1481999375
H                31.1167554740       21.0225417611       -4.0903106270
N                33.6102929997       21.6852857617       -3.0909219737
C                34.6776993171       21.4363519657       -2.1543664946
C                35.0130294140       19.9490700707       -2.2755181139
O                34.2755110082       19.1799650476       -2.8813441192
C                34.2294141360       21.7672319670       -0.7177895670
C                33.4705023506       23.0978941478       -0.6111486609
C                32.8730052943       23.2395703316        0.7880530236
C                34.3737190318       24.2828378764       -0.9421476591
H                32.8057892596       21.0905286110       -2.9647995889
H                35.5357506538       22.0503923957       -2.4403038519
H                33.5817327255       20.9629686911       -0.3588058282
H                35.1085573205       21.8097063357       -0.0739995524
H                32.6428941753       23.0927724457       -1.3285609419
H                32.2932815721       24.1566653724        0.8568409681
H                32.2137643203       22.4036595009        1.0123276126
H                33.6578578845       23.2726362713        1.5396124158
H                33.8249360305       25.2155870992       -0.8338624506
H                35.2363801109       24.3142452115       -0.2801132304
H                34.7320695127       24.2259359397       -1.9670983756
N                36.1622694779       19.5492694751       -1.7170839395
C                36.4789370742       18.1261944197       -1.6780574158
C                35.5525876062       17.5407835815       -0.5920247964
O                35.7365252676       17.7357142338        0.5936015149
C                37.9694373711       17.9070320071       -1.4370444039
C                38.8019736569       18.6883997355       -2.4665785631
C                40.0950919075       17.9741252831       -2.8681719429
C                40.8529985878       18.8298847403       -3.8814066019
N                42.0601018635       18.1262151645       -4.3986856753
H                36.6485309084       20.1571364870       -1.0748907669
H                36.1975777010       17.7244069930       -2.6574164110
H                38.2160811581       18.2129221553       -0.4200471471
H                38.1607038976       16.8364643236       -1.5176349034
H                38.1983487736       18.8451781194       -3.3620304397
H                39.0416624320       19.6688230118       -2.0572048596
H                40.7017279012       17.8036752742       -1.9790242591
H                39.8402262332       17.0086060625       -3.3065027954
H                40.1998650172       19.0673582387       -4.7224012801
H                41.1657621976       19.7630430581       -3.4124554459
H                42.5647125961       18.7240858207       -5.0696307247
H                42.6962356104       17.8887453996       -3.6227390650
H                41.7881909578       17.2530683902       -4.8751055714
H                44.3338393737       16.2185118520        8.8236130915
H                43.3151331236       27.6153220622      -10.9496251806
H                36.5766271049       21.4152355857      -11.6161673472
H                33.8372768043       20.5525542534       -8.8573063326
H                32.1734949069       20.6680556416       -6.0611971000
H                34.7680842382       16.9786588942       -0.8538841128
