 423 
 
N                51.5245501006       12.5397727478       -0.5829322869
C                51.7045600787       13.9591829195       -0.2860594872
C                51.6339275871       14.1531418139        1.2209147833
O                52.5086573567       14.8012147592        1.7934346896
C                50.8701724833       14.9116052923       -1.1463982733
C                49.4085414156       14.8744228564       -0.7728569092
C                51.0772559678       14.6180375502       -2.6340151912
C                48.6226859577       15.5952454894       -1.8505063171
H                50.9730431862       12.2376793956       -1.3725666011
H                52.7534053556       14.2053000104       -0.5228841597
H                51.2732403871       15.9097669564       -0.9397870798
H                49.0666425644       13.8476508429       -0.6731258150
H                49.2581474248       15.3661435347        0.1899538012
H                50.7393763669       15.4436607129       -3.2467904051
H                52.1329711903       14.4693946886       -2.8305890167
H                50.5559547243       13.7114169044       -2.9331882692
H                47.6072346090       15.8005089278       -1.5135387615
H                49.0805645600       16.5554296024       -2.0788499866
H                48.5572694997       15.0141065740       -2.7618560871
N                50.6095719395       13.5619930075        1.8423488692
C                50.5841392231       13.5434090235        3.2929859671
C                51.9598394643       13.2993476185        3.8887990201
O                52.4540471554       14.0471598645        4.7252707075
C                49.6890175270       12.4917174237        3.9507056013
C                48.1981990050       12.7676539763        3.6652206677
C                49.9832014927       12.4609698813        5.4607094197
C                47.8004214816       14.1981176339        3.9371197365
H                50.0152103583       12.9277698009        1.3260856791
H                50.2892307209       14.5405960347        3.6477873275
H                49.9417003637       11.5119908344        3.5306841455
H                47.9794306173       12.5282764553        2.6219220917
H                47.6167246691       12.0888825231        4.2868033529
H                49.2147460880       11.8922493393        5.9797465919
H                50.9367171648       11.9864682922        5.6674627243
H                50.0043138113       13.4634312697        5.8793138987
H                46.7272338464       14.2872280701        4.0600977724
H                48.2563822174       14.5639368407        4.8561902212
H                48.0992981913       14.8476512851        3.1190642533
N                52.5613650895       12.1581846619        3.5506010349
C                53.9296225809       11.9977880622        3.9968455847
C                54.9723991625       13.1085857662        3.6073483704
O                55.8326160479       13.4694971644        4.4086822463
C                54.3494860512       10.5556934853        3.6854305515
S                53.4390959938        9.5731926578        4.9556664431
H                52.2262577213       11.6015156852        2.7747418963
H                53.9163694812       12.0847208423        5.0954711595
H                54.0438238734       10.2709419552        2.6817300142
H                55.4136003632       10.3984373931        3.8536123468
H                54.2120894964        8.4934184490        4.9086434635
N                54.9874288938       13.6622915650        2.4019860158
C                56.0723789078       14.5634375828        2.1973076684
C                56.0313903812       15.7509892910        3.1547705628
O                57.0593402628       16.3381461489        3.4898724477
C                56.0425218267       15.1569307163        0.8000947474
O                57.2276776377       15.9346303416        0.6763933059
H                54.2597900685       13.4864844668        1.7137644142
H                57.0337206778       14.0701566576        2.3886440167
H                56.0185654497       14.3545248968        0.0567840807
H                55.1397113946       15.7652680160        0.6674213773
H                57.3738826546       16.1688537825       -0.2524811952
N                54.7885801318       16.1512932262        3.4527796766
C                54.4780290962       17.1544127249        4.4838197773
C                55.0782300504       16.8023534851        5.9015764559
O                55.8002166625       17.6277194519        6.4844138793
C                52.9429788512       17.2588236560        4.5622060575
C                52.3828587129       17.9999218981        5.7922069236
C                52.6533783951       19.4881208742        5.5892334979
C                50.8897750971       17.6861108141        5.9727154925
H                54.0067763006       15.6097154494        3.1024922838
H                54.9485515247       18.0993401347        4.1927718500
H                52.5958595503       17.7609286470        3.6628276632
H                52.5604066193       16.2361762454        4.5632349469
H                52.9070454210       17.6523908178        6.6835146986
H                52.2579267959       20.0727118862        6.4162202954
H                53.7203306630       19.6699323924        5.5186860788
H                52.1814577809       19.8297088095        4.6715435711
H                50.4837395776       18.2175699631        6.8277343603
H                50.3424142071       18.0057038229        5.0888423668
H                50.7367330500       16.6183442873        6.0971800588
N                54.6778676789       15.6108074909        6.4177603047
C                54.9951962602       15.2054809490        7.7657747360
C                56.4362602347       14.7868176150        7.9390505092
O                56.9796264294       15.1939148050        8.9557425537
C                53.9331232531       14.3273160662        8.4618223379
C                52.9517898097       13.7407524166        7.4664917487
C                54.5211519974       13.2751273558        9.3942231290
H                54.1445409692       14.9836115553        5.8281714464
H                54.9974057446       16.1580135067        8.3232008537
H                53.3465997137       15.0013823435        9.0991919480
H                52.1983739706       13.1606117263        7.9966855330
H                52.4365376050       14.5144682564        6.9104383607
H                53.4545958335       13.0695448590        6.7765139728
H                53.7167877118       12.7420061442        9.8942016936
H                55.1146381613       12.5493926680        8.8389849475
H                55.1606073105       13.7227205564       10.1486924463
N                57.1133925408       14.1754711577        6.9692134719
C                58.5470692199       14.0183498500        7.1578712138
C                59.3954116951       15.2816095487        6.8157024291
O                60.5796097399       15.2865562268        7.1093576324
C                59.2148891887       12.8478602415        6.3946980928
C                58.6703387659       11.4268242121        6.5490452035
C                58.3222514366       10.7462543870        5.1271465503
O                58.3334182256       11.4335517864        4.0725796902
O                58.0227908003        9.5326574234        5.1780663993
H                56.6902547468       13.8426050479        6.1089065277
H                58.6947969502       13.8606672716        8.2363851985
H                59.1259882185       13.0828665339        5.3242160212
H                60.2750981297       12.8782665913        6.6470973984
H                59.3641806991       10.7481710222        7.0375704913
H                57.7326498262       11.4113456576        7.1091041061
N                58.8502067310       16.3689428961        6.2248837989
C                59.7567709738       17.3950252336        5.6995856221
C                59.5300259065       18.8192638360        6.2376636197
O                60.4390143653       19.6380918559        6.2891827539
C                59.6855317123       17.4208383026        4.1688480536
C                60.4565781636       16.2295422472        3.5816900615
O                61.6466514830       16.0697780374        3.8372568472
N                59.7454799856       15.4374109677        2.7414060580
H                57.9460136977       16.2800130087        5.7798489907
H                60.7703419722       17.0995266697        5.9949401127
H                58.6576849718       17.4476830621        3.8265672849
H                60.2075387000       18.3191717515        3.8333261436
H                60.1502847874       14.5573525945        2.4673251473
H                58.7463249010       15.5939732486        2.6723717912
N                58.2524080927       19.0442853781        6.5676872158
C                57.7598254175       20.2222997903        7.2298779933
C                57.4509793530       19.9642061519        8.6992400580
O                58.2437428768       20.3339759451        9.5598517321
C                56.5863644532       20.7340609908        6.4224949594
C                57.2569179118       21.4332631988        5.2510832840
C                55.7188219742       21.6710830704        7.2099308233
C                56.3170996366       21.8216306403        4.1218953774
H                57.5758148652       18.2988913571        6.4587643813
H                58.5915770387       20.9384263659        7.2248986405
H                56.0019335324       19.8837338334        6.0659401200
H                57.7563483117       22.3334406339        5.6124880854
H                58.0154179399       20.7645591915        4.8342965595
H                54.9641588193       22.1087287898        6.5601490066
H                55.1977595473       21.1865626815        8.0261385362
H                56.3153672917       22.4858929283        7.6165668567
H                56.8803781701       22.1515265704        3.2551891090
H                55.6998401653       20.9754428099        3.8259367120
H                55.6532414366       22.6294476399        4.4198582358
N                56.2916488794       19.3646257403        8.9787453935
C                55.7578785488       19.2709795744       10.3333714732
C                56.6900421920       18.6521713024       11.3463705219
O                56.6628179625       18.9292746878       12.5303875194
C                54.5714812049       18.3103005411       10.3482288460
C                53.5449459120       18.7212361021        9.2258093832
C                54.0663686010       18.0819425487       11.7816902677
C                52.0640460080       18.8899919002        9.5857534148
H                55.7990675838       18.9039473150        8.2236379864
H                55.4686332104       20.2719479103       10.6716676818
H                54.9727965270       17.3356014824       10.0349762216
H                53.8621940377       19.6583697313        8.7754569235
H                53.6014343004       17.9512950976        8.4559167424
H                53.1459883986       17.5055806245       11.7571786862
H                54.7892436500       17.5115301936       12.3525658391
H                53.8843389930       19.0250275023       12.2881966380
H                51.4984913888       19.0498512674        8.6745335517
H                51.6598876792       18.0297707254       10.1038491803
H                51.9353780543       19.7622252250       10.2235469403
N                57.4906818309       17.6999809722       10.8760939565
C                58.3687716243       17.0452757500       11.7995276604
C                59.6736580432       17.7789629165       12.0027043554
O                60.2189148579       17.6355451008       13.0942140694
C                58.7643883014       15.6307889211       11.4096724770
C                57.6888784011       14.6582031253       11.8246383622
S                58.2266085490       12.8912647367       11.5801980619
C                58.9105149821       12.4815838544       13.2388638437
H                57.3819362675       17.2722030126        9.9658551000
H                57.8816434242       17.0129087416       12.7851701447
H                58.9006747504       15.5434483386       10.3327597137
H                59.6968142858       15.3611104163       11.9075267105
H                57.4414255239       14.7446704534       12.8804953866
H                56.8023567444       14.7806570656       11.2097549562
H                59.5638932004       11.6275804890       13.1057450289
H                59.4654618162       13.3283968382       13.6221652780
H                58.0987914607       12.2064015197       13.9047982420
N                60.1687523748       18.5866936664       11.0544482451
C                61.1975779797       19.4651864439       11.5216799993
C                60.5508156605       20.3444701239       12.5903300617
O                61.1893548194       20.7248964835       13.5727845531
C                61.6663312890       20.1932903721       10.2777146068
C                61.5750224771       19.1224380469        9.2231201004
C                60.2775340763       18.4137417914        9.6243616398
H                62.0176018761       18.9098880084       11.9985035948
H                60.9549240160       20.9834816421       10.0314362176
H                62.6724613732       20.5865378185       10.3857719459
H                61.5127444300       19.5067432127        8.2084635296
H                62.4141445387       18.4292801740        9.2775291021
H                59.4352441069       18.8570664594        9.1142924566
H                60.3009194511       17.3517508937        9.3560361687
N                59.2912192165       20.7967772712       12.3876785289
C                58.8337079953       21.9150838485       13.2608908459
C                58.9206194960       21.4735283994       14.6797742136
O                59.6501122606       22.0393188765       15.4833910731
C                57.4430013754       22.4544696786       12.9627057734
C                57.4040661205       22.9342048666       11.5128544828
C                55.9499619993       23.2519389380       11.1806592444
C                58.3819980880       24.0748009261       11.2780953346
H                58.7359210815       20.4949784762       11.5966395991
H                59.5913803114       22.7050198972       13.1931200767
H                56.7073215905       21.6649200908       13.1093103776
H                57.2229035897       23.2713389110       13.6480739368
H                57.6923017126       22.1004150611       10.8645596867
H                55.8555000479       23.5857470988       10.1490101942
H                55.3256893341       22.3731890397       11.3120533971
H                55.5606519737       24.0391620454       11.8234761122
H                58.5026412204       24.2482362378       10.2154678878
H                57.9960044491       24.9890619006       11.7300952329
H                59.3229918380       23.8505086642       11.7518470344
N                58.1296223297       20.4628229138       14.9781295089
C                58.0721402993       20.0513700264       16.3354630663
C                59.4238563212       19.6682883775       16.9723753519
O                59.5076009427       19.4294416081       18.1695324725
C                56.9989087204       18.9944405727       16.4281165037
C                55.6572441710       19.6014338179       16.0218698187
C                56.9385031506       18.4765259820       17.8459772229
C                54.6320710516       18.5253527827       15.6608904915
H                57.6781246820       19.9042199548       14.2622154811
H                57.7589092841       20.9208193347       16.9377059199
H                57.2615400358       18.1726452120       15.7491619275
H                55.2735236077       20.2022373049       16.8479769913
H                55.7745476210       20.2465503345       15.1528895781
H                56.0948605961       17.7990974129       17.9691834743
H                57.8305517020       17.9218964252       18.1236217893
H                56.8195573735       19.2959141360       18.5508442646
H                53.6921389328       18.9862021570       15.3691747138
H                54.9949421082       17.9259038416       14.8288694394
H                54.4371438537       17.8606219903       16.4978070648
N                60.5087189834       19.7113783458       16.1968569197
C                61.8011993945       19.4387581719       16.7449790938
C                62.7734919282       20.6131586529       16.6384778870
O                63.9625914340       20.4141285020       16.8864447064
H                60.4503738419       19.7579806544       15.1886320302
H                61.6780820790       19.2367964783       17.8128065309
H                62.2468041825       18.5595351171       16.2667354352
N                62.2456793740       21.7778812362       16.2277801085
C                62.8752138265       23.0731801526       16.4131176124
C                62.1369502225       23.9222237467       17.4336007505
O                62.8240924529       24.7061206140       18.0695515892
C                63.1082490030       23.9100761156       15.1459178676
C                64.0698118681       23.1388040485       14.2475458424
C                64.6021881609       23.9531668189       13.0777845208
C                65.1600781475       23.0260098445       11.9908596235
N                66.6070103711       22.7077572830       12.1992934399
H                61.2944733852       21.7489938195       15.8821991576
H                63.8516740285       22.8634741534       16.8663589556
H                62.1506737253       24.0761188455       14.6548795244
H                63.5286989247       24.8604494002       15.4722061218
H                64.8874555770       22.7735406903       14.8701929024
H                63.5267958532       22.2565346201       13.8992554194
H                63.7939540111       24.5619649268       12.6886730876
H                65.3664620410       24.6408560557       13.4384263059
H                64.6176010680       22.0770912665       12.0180411200
H                65.0847132681       23.4526412912       10.9895403507
H                66.9708961230       22.0914554228       11.4591278633
H                67.1777708528       23.5668107659       12.2222004899
H                66.7225356269       22.2267810605       13.1055549904
N                51.0150432603       11.9285493511       12.2102571348
C                50.4838194898       11.6635310585       10.8795651867
C                48.9617916865       11.8666935464       10.8007473373
O                48.4420492619       12.2640239813        9.7566571119
C                50.8025762785       10.2112007997       10.4136836986
C                50.6320905352       10.1197348291        8.8958312665
C                49.9057846923        9.1532841475       11.0436345659
C                50.6517719370        8.6833199194        8.3437475535
H                51.3304273362       11.1039242491       12.7104347353
H                50.9345277781       12.3720286749       10.1713211972
H                51.8448046035       10.0125634238       10.6879186805
H                49.6754440000       10.5713334100        8.6266620804
H                51.4187744850       10.6971035563        8.4029583872
H                50.3438557488        8.1745703822       10.8806492020
H                49.8191813183        9.3364194116       12.0902416202
H                48.9164964310        9.1834586542       10.5941129271
H                50.6885513247        8.7256349581        7.2581630161
H                51.5300119496        8.1454560082        8.6941083557
H                49.7569831408        8.1401282440        8.6193679275
N                47.3099201685       14.0643629907       12.9447941641
C                47.2996723655       15.5061404091       12.9648507589
C                47.6332325716       16.1362784428       11.6090396795
O                46.9338581059       17.0290408253       11.1327907266
C                48.3306512920       16.0115928228       13.9561681757
C                48.8129012736       17.4003316588       13.6254296651
C                48.0582513204       18.5151211343       13.9617671522
C                50.0692517559       17.5998282061       13.0715341379
C                48.5726751385       19.7956677981       13.8568494829
C                50.5966608987       18.8767903241       12.9951007303
C                49.8700853925       19.9743063634       13.4199107819
H                47.8982398805       13.5751296690       13.6088844250
H                46.2899164773       15.8554754300       13.2261032315
H                47.9256208523       15.9852062164       14.9689551370
H                49.1835197239       15.3315745699       13.9075406432
H                47.0604140027       18.3700909411       14.3508448601
H                50.6671467877       16.7469905767       12.7815469097
H                47.9791534514       20.6441846493       14.1571034670
H                51.6041140267       19.0143552342       12.6391375023
H                50.3106973695       20.9587673367       13.3858389722
N                48.7250738854       15.7318487699       10.9762583676
C                49.0561678036       16.3837085583        9.7231155731
C                47.9343582209       16.2748729507        8.6919597340
O                47.8286268141       17.1361317606        7.8255090058
C                50.3231269366       15.8225214355        9.0930216134
H                49.3598571518       15.0447385399       11.3687212909
H                49.1976216202       17.4561292431        9.9226028853
H                50.6166724732       16.4307133916        8.2476313445
H                51.1244298483       15.8150696067        9.8286319102
H                50.1580413594       14.7982506660        8.7621566666
N                45.6873760818       19.5869993453        9.7504702338
C                46.1000015618       20.8640534015        9.1894073134
C                46.0907903963       20.8628915309        7.6518283898
O                45.8593309440       21.8958038028        7.0337247177
C                47.4334386015       21.5050405590        9.6923664203
C                48.3085646657       21.9689078949        8.5059494479
C                48.1850839865       20.5798070366       10.6201880518
C                49.6881371156       22.4199586953        8.9167993378
H                46.3747797733       18.9429855296       10.1249826843
H                45.2862453020       21.5576774343        9.4367008175
H                47.1780930059       22.3991742175       10.2665070104
H                48.4087214108       21.1612711236        7.7775826323
H                47.8023896276       22.7973522744        8.0128736790
H                49.0562377322       21.0765854459       11.0315201910
H                47.5772820946       20.2321029370       11.4486825504
H                48.5446218412       19.7017593119       10.0762059149
H                50.1656547829       22.9222552562        8.0771941030
H                49.6400428270       23.1223658027        9.7445625222
H                50.3238401352       21.5838714293        9.1961330892
N                46.3707297097       19.7369036321        6.9969990104
C                46.3014675826       19.7966392646        5.5559685613
C                44.8548088322       20.0449808248        5.1073090171
O                44.6682334129       20.8100418452        4.1609713868
C                46.8643469027       18.5332286186        4.8968613892
C                46.5390542007       18.4891816941        3.4165203916
C                47.5485149263       18.4923392499        2.4641867363
C                45.2147927750       18.3909431530        2.9893981879
C                47.2158171109       18.4126037341        1.1294399618
C                44.8809699726       18.3887889006        1.6600034215
C                45.8899660662       18.3855314282        0.7282645766
H                46.6618414003       18.8689121625        7.4279613492
H                46.8598573054       20.6754265866        5.2047091602
H                47.9388221633       18.4814436579        5.0717795901
H                46.4044630372       17.6827262929        5.4094815303
H                48.5844105184       18.5489341865        2.7655438154
H                44.4353013412       18.2364049562        3.7170246522
H                47.9946965517       18.3863878485        0.3806144064
H                43.8488972908       18.3462255141        1.3460535865
H                45.6519230585       18.3525122944       -0.3251890599
N                63.0059797902       23.9520362584        6.2798232870
C                61.9349607831       23.1053943487        5.8335111105
C                62.1599302333       22.7927546928        4.3579212593
O                63.2476975209       22.9164024356        3.8305556633
C                60.5643467191       23.7304602816        6.1408835819
C                60.5901522785       24.5866835420        7.3809971531
C                60.9252256944       23.7554110606        8.6053089548
C                61.3981155677       24.7385106914        9.6659379109
N                61.7806142229       24.1374419914       10.9882976791
H                63.1763105609       24.7926350664        5.7492110789
H                62.0423053570       22.1547980854        6.3751439066
H                60.2481040498       24.3473612735        5.2962817476
H                59.8374117467       22.9296024252        6.2741279347
H                61.3175678080       25.3901375601        7.2582676571
H                59.6115641207       25.0522330341        7.4968611129
H                60.0438103030       23.2030005621        8.9275208376
H                61.7099849845       23.0347935978        8.3803970317
H                62.2589990861       25.2917757625        9.2795384685
H                60.6058084302       25.4661715918        9.8518654588
H                62.0360770394       24.8905606825       11.6445544699
H                60.9703205352       23.6218116503       11.3727096590
H                62.5449075086       23.4525314496       10.8734673604
N                60.9966611519       22.4894054544        3.7210807186
C                60.9726199777       22.0051321964        2.3651150252
C                59.6936492173       22.2153372405        1.4907636136
O                58.5426376444       21.9465776698        1.7548166513
C                61.3759450243       20.5233528245        2.4368343844
C                62.8697235247       20.2957283999        2.5357286625
C                63.4151819695       19.3817389295        3.4431350274
C                63.7154217622       20.8672318764        1.5918802656
C                64.7564813870       19.0228451489        3.3944975502
C                65.0647901028       20.5456559705        1.5692845533
C                65.6177796803       19.6102107964        2.4541125248
O                66.9638807871       19.3135263951        2.4074755487
H                60.1961998635       22.2293436836        4.2813860608
H                61.7806604378       22.5301068577        1.8560982161
H                60.9026412882       20.0844694222        3.3173474919
H                61.0032527187       19.9903432770        1.5620780318
H                62.7775840778       18.9003263594        4.1685135472
H                63.3408265873       21.5390727412        0.8334860892
H                65.1499360051       18.2896854903        4.0796264061
H                65.7090907055       21.0249616398        0.8435123154
H                67.3859994963       19.8510255216        1.7265381594
N                58.1757637024       18.9491027228       -0.0897669169
C                56.7010788465       18.9667368868       -0.0650178569
C                56.0693359340       19.1624739587       -1.4234255599
O                55.2015723794       18.4051483998       -1.8559783564
C                56.0583962927       20.1437464593        0.7216512838
C                54.5389341812       19.9800255000        0.7916190975
C                53.9373605134       18.8140347306        1.2696800285
C                53.6775812812       21.0169831325        0.4744138253
C                52.5614182125       18.6833788787        1.3676247421
C                52.2937133742       20.8813327658        0.5809180891
C                51.7076767687       19.7093542956        1.0073913287
H                58.5997349562       19.6893699305        0.4559405315
H                56.3538058013       18.0204162649        0.3570779522
H                56.4529883525       20.1354550516        1.7409812110
H                56.3142434153       21.1017831180        0.2764825460
H                54.5507905198       17.9820943503        1.5801680489
H                54.0788980024       21.9585284796        0.1274860722
H                52.1557024173       17.7273968833        1.6651428335
H                51.6772275411       21.7238654660        0.3019063437
H                50.6376607921       19.6034965117        1.0696200537
H                52.3267164856       12.1599861562       -0.7322347843
H                61.1491867271       23.8182000807       17.5498003810
H                51.7222314871       12.4815898057       12.1467664471
H                48.3899455160       11.6762076800       11.5986866156
H                46.4795270761       13.7557883536       13.1036305752
H                47.2951433786       15.5066769145        8.7277261320
H                45.1296266324       19.7290022781       10.4423883783
H                44.0996945982       19.5910934141        5.5803721335
H                62.8414461831       24.2263975173        7.1210453693
H                59.7715036567       22.6223102378        0.5806473212
H                58.4724826204       18.1671596588        0.2426829718
H                56.3541816961       19.9268477303       -2.0018679763
