 155 
 
N                54.1953883928       49.3111431125      207.3420427555
C                55.1688948566       48.8278531387      206.3919824225
C                56.2597225032       48.0128309735      207.0382976945
O                56.5842890151       48.1387698649      208.2068428348
C                55.9327141449       50.0458913389      205.8634897924
C                55.4817839647       51.2047900386      206.7310999951
C                54.5536466523       50.6238144396      207.7988365546
H                54.6766162890       48.2508133505      205.6053041533
H                57.0067634854       49.8837312100      205.9364093794
H                55.6938621951       50.1986959360      204.8131398881
H                56.3147108688       51.7160577487      207.2065897130
H                54.9459158297       51.9420219957      206.1388053689
H                55.0629475817       50.5466497727      208.7645573219
H                53.6808359647       51.2609444070      207.9495454781
N                56.9017543532       47.2065087996      206.1723109365
C                58.0174747315       46.3984015952      206.6145164672
C                59.3530690124       47.1394021676      206.5422554638
O                59.5615687948       48.1391362194      205.8744514667
C                58.1703805326       45.0886765237      205.8273896987
O                59.2049318618       45.1758195907      204.8403039727
H                56.6421585899       47.2409807604      205.1907071556
H                57.8019030424       46.1945682626      207.6692373043
H                58.4337940476       44.2733050541      206.5091434505
H                57.2136728684       44.8600346198      205.3517036197
H                59.0158306736       44.4796962221      204.1961869082
N                60.2936490807       46.5841640134      207.3438329711
C                61.5587773982       47.2821574386      207.3789475029
C                62.1815012241       47.2672397743      205.9823986148
O                62.6042035045       48.3242870625      205.5334514634
C                62.5039342964       46.8355370172      208.4909476030
C                62.0883893576       47.2222886287      209.9320794312
C                61.5430640660       46.0374244408      210.7560761896
C                60.0678667617       45.7279106322      210.4290074800
N                59.7227139517       44.3311818921      210.8190051192
H                60.2830487329       45.5832648294      207.4934126122
H                61.3219041961       48.3390066369      207.5506148672
H                62.6728010456       45.7604949669      208.4286951808
H                63.4586572654       47.3183086964      208.2749342600
H                62.9725997041       47.6060191153      210.4389938014
H                61.3599260507       48.0307508697      209.9093281505
H                62.1746996876       45.1734082995      210.5503337828
H                61.6516926052       46.2736188027      211.8131948072
H                59.4382924170       46.4351298377      210.9694543263
H                59.8818055055       45.8675581199      209.3703985743
H                58.7320952231       44.1070324654      210.6441321161
H                60.3153793810       43.6528922783      210.3158537112
H                59.9205540892       44.2024183764      211.8269055988
N                62.1903721860       46.1053552759      205.3047972617
C                62.6052776566       45.9667020696      203.8850469772
C                62.0502111366       47.1329249165      203.0054757403
O                62.7757081849       47.7955232684      202.2612342608
C                62.1862165833       44.5321787788      203.4338790802
C                62.1715618807       44.1008181750      201.9424129307
C                63.4984284548       44.0189771615      201.1790731323
C                64.4953495441       42.9569814583      201.6401313353
N                64.2145883724       41.6049630747      201.0784735608
H                61.6907722900       45.3092616194      205.6773028379
H                63.6947611725       46.0776238876      203.8384948694
H                62.8220456736       43.8462462450      203.9949190205
H                61.1577339356       44.3998314626      203.7691865040
H                61.6778808840       43.1274921773      201.9238018466
H                61.5278659884       44.7906416799      201.3935373142
H                63.2696758585       43.8678220612      200.1230856538
H                63.9841720299       44.9930413572      201.2512905617
H                65.4914404017       43.2559865182      201.3096219466
H                64.5026885999       42.8925457521      202.7277376609
H                64.9255371320       40.9373075120      201.4155666390
H                63.2816791451       41.2700601259      201.3559081847
H                64.2646777197       41.6347502972      200.0489097339
N                60.7285598933       47.3290255344      203.1293442732
C                59.9574911941       48.2916954684      202.3694717961
C                60.3462091019       49.7605177434      202.6212059549
O                60.3646247175       50.5710975982      201.6949398223
C                58.4791945447       48.0939611927      202.7174822249
C                57.9580562499       46.7282021866      202.3034049189
C                56.4646006329       46.5332428210      202.7350241687
O                55.9114813861       47.4954492581      203.3084291017
O                55.9562120228       45.4134837674      202.5103633701
H                60.2020578953       46.7758064003      203.7941353819
H                60.1123381599       48.1187716713      201.2952186843
H                58.3520009702       48.2293006434      203.7937051352
H                57.8711815626       48.8573761830      202.2293190840
H                57.9910402638       46.6083993904      201.2184511180
H                58.5333324932       45.9196907570      202.7445679783
N                60.5728919912       50.0723911251      203.9038582182
C                61.0005725895       51.3856915849      204.3572330283
C                62.3408139446       51.6828756523      203.7209048465
O                62.5575490324       52.7589068251      203.1743022186
C                61.0487019372       51.4639764070      205.8915216636
C                59.6072509620       51.3522237035      206.3948372029
C                61.6964630162       52.7621970892      206.3402966847
C                59.5238406573       51.1522804747      207.8919702034
H                60.5147175890       49.3401049904      204.6021619209
H                60.3028940044       52.1450347255      203.9831573917
H                61.6399228628       50.6166472204      206.2540801745
H                59.0620783248       52.2545808595      206.1115115234
H                59.1320191822       50.5037511893      205.9018029501
H                61.7306445256       52.8248259889      207.4239338135
H                62.7139036546       52.8483482584      205.9659333267
H                61.1332274793       53.6164122322      205.9706017518
H                58.4854941470       51.1000820264      208.2059897328
H                60.0151049426       50.2234265236      208.1678193359
H                60.0026506604       51.9625484458      208.4344223704
N                63.2325100969       50.7009038227      203.7888182711
C                64.5501857828       50.8247995072      203.2027067425
C                64.4640747720       51.0170005017      201.7002100558
O                65.1841476142       51.8377955180      201.1284972795
H                63.0332520485       49.8719763015      204.3428287681
H                65.0859103858       51.6853968574      203.6204314457
H                65.1150596555       49.9179138905      203.4188706513
N                63.5781342684       50.2316940490      201.0853187721
C                63.3519912739       50.3327531357      199.6472470279
C                63.0390761858       51.7917574483      199.2644152899
O                63.6778593472       52.3860325348      198.3970352906
C                62.2254206772       49.4019666561      199.2102215074
H                63.1270203738       49.4635703827      201.5778219767
H                64.2797101300       50.0708553247      199.1194409120
H                62.0704630896       49.4946197168      198.1379654665
H                62.4877012404       48.3756430685      199.4487963527
H                61.2994093173       49.6649733304      199.7134629962
N                62.0122283337       52.3089888388      199.9671264465
C                61.5509835361       53.6862416870      199.8554983969
C                62.7406893395       54.6338407732      200.1136406125
O                63.1253548401       55.4319438604      199.2559088267
C                60.3955970582       53.9724028381      200.7941731543
C                59.9928467390       55.4277620657      200.6552762051
S                58.8615055959       55.9520961082      201.9792786776
C                60.1280344019       56.1278144576      203.2638501748
H                61.5144346350       51.7168205906      200.6228750720
H                61.2356650146       53.8765637605      198.8182399435
H                59.5465766920       53.3294398333      200.5611225275
H                60.7114518151       53.7623261750      201.8180713673
H                60.8581616095       56.0876021476      200.7031884646
H                59.4669428604       55.6048435736      199.7185471991
H                59.6238178870       56.4728051262      204.1624243370
H                60.6012003328       55.1697643243      203.4601987907
H                60.8618808558       56.8633168649      202.9511098751
N                54.1922220690       52.7126411102      200.5187993494
C                55.0399410367       52.7515731494      201.6956954282
C                55.0480388697       54.1998546271      202.2640004996
O                54.8227702454       54.4846286409      203.4420244840
C                56.5196831561       52.3551280460      201.4407849637
O                56.6888533463       51.0417669597      200.9233726656
C                57.2489463640       52.4260249518      202.7756525688
H                54.6191619098       52.3895076723      199.6538529022
H                54.6307568628       52.0876793538      202.4700932556
H                56.9381367834       53.0811478915      200.7262205686
H                57.6367542696       50.8585356104      200.9332909244
H                58.3056118417       52.2095765228      202.6309707737
H                57.1509752741       53.4053430960      203.2333868010
H                56.8353246499       51.6747504440      203.4452675021
H                53.3819733271       48.9909911434      207.1278964330
H                63.2180371717       54.6092643111      200.9920112885
H                53.4975400235       52.1599841317      200.6670798933
H                55.2452312156       54.9726090574      201.6607047436
