 436 
 
N                76.1510000000       54.2910000000      209.6700000000
C                75.2770000000       55.0900000000      208.7470000000
C                74.0390000000       55.6480000000      209.4560000000
O                73.4560000000       54.9820000000      210.3590000000
C                74.8330000000       54.2230000000      207.5280000000
O                73.9600000000       53.1180000000      207.8730000000
H                76.5560000000       53.6460000000      209.2100000000
H                76.7640000000       54.8250000000      210.0340000000
H                75.6530000000       53.9300000000      210.3120000000
H                75.7950000000       55.8440000000      208.4250000000
H                74.3620000000       54.7980000000      206.9040000000
H                75.6290000000       53.8600000000      207.1090000000
H                73.8300000000       52.6340000000      207.1990000000
N                73.6420000000       56.8640000000      209.0490000000
C                72.3040000000       57.3420000000      209.3890000000
C                71.2310000000       56.3710000000      208.9210000000
O                70.3400000000       56.0090000000      209.6930000000
C                72.1080000000       58.7130000000      208.7770000000
C                70.9490000000       59.5830000000      209.3420000000
C                71.2190000000       61.1290000000      209.1440000000
O                71.7490000000       61.5520000000      208.0860000000
O                70.9410000000       61.9420000000      210.0560000000
H                74.1180000000       57.4130000000      208.5880000000
H                72.2170000000       57.4180000000      210.3520000000
H                72.9270000000       59.2170000000      208.9040000000
H                71.9350000000       58.5950000000      207.8300000000
H                70.1260000000       59.3580000000      208.8810000000
H                70.8550000000       59.4110000000      210.2920000000
N                71.3670000000       55.8640000000      207.6960000000
C                70.3920000000       55.0010000000      207.0310000000
C                69.7390000000       53.8790000000      207.8410000000
O                68.5030000000       53.8040000000      207.9210000000
C                71.1000000000       54.3850000000      205.7910000000
C                70.1530000000       53.8330000000      204.7540000000
C                69.4930000000       52.6100000000      204.9360000000
C                69.9340000000       54.5450000000      203.5840000000
C                68.6020000000       52.1340000000      203.9860000000
C                69.0510000000       54.0790000000      202.6300000000
C                68.3710000000       52.8700000000      202.8350000000
H                72.0530000000       56.0140000000      207.2000000000
H                69.6470000000       55.5810000000      206.8110000000
H                71.6360000000       55.0730000000      205.3650000000
H                71.6700000000       53.6580000000      206.0880000000
H                69.6540000000       52.1110000000      205.7040000000
H                70.3870000000       55.3440000000      203.4400000000
H                68.1610000000       51.3260000000      204.1220000000
H                68.9060000000       54.5680000000      201.8520000000
H                67.7660000000       52.5620000000      202.1990000000
N                70.5280000000       52.9630000000      208.3960000000
C                69.8970000000       51.8490000000      209.0800000000
C                69.1880000000       52.2790000000      210.3460000000
O                68.2620000000       51.5750000000      210.8000000000
C                70.9280000000       50.7600000000      209.3110000000
C                71.1200000000       49.9740000000      208.0010000000
C                69.8110000000       49.2370000000      207.6670000000
O                69.0370000000       48.9260000000      208.6330000000
O                69.5780000000       49.0500000000      206.4450000000
H                71.3880000000       52.9660000000      208.3890000000
H                69.2070000000       51.4540000000      208.5240000000
H                71.7750000000       51.1550000000      209.5710000000
H                70.6190000000       50.1530000000      210.0020000000
H                71.3330000000       50.5840000000      207.2780000000
H                71.8320000000       49.3240000000      208.1070000000
N                69.5860000000       53.4440000000      210.8830000000
C                68.9900000000       54.0020000000      212.0950000000
C                67.6680000000       54.6900000000      211.8040000000
O                66.7150000000       54.5560000000      212.5840000000
C                69.9430000000       55.0000000000      212.7700000000
H                70.2100000000       53.9360000000      210.5560000000
H                68.8360000000       53.2680000000      212.7110000000
H                69.5230000000       55.3440000000      213.5730000000
H                70.7680000000       54.5430000000      212.9980000000
H                70.1260000000       55.7270000000      212.1550000000
N                67.6040000000       55.4380000000      210.6980000000
C                66.3510000000       56.0560000000      210.2850000000
C                65.2930000000       54.9950000000      210.0180000000
O                64.1170000000       55.1810000000      210.3590000000
C                66.5680000000       56.9610000000      209.0620000000
C                65.2680000000       57.4320000000      208.5600000000
C                67.4450000000       58.1690000000      209.4250000000
H                68.2690000000       55.6000000000      210.1770000000
H                66.0350000000       56.6150000000      211.0130000000
H                67.0200000000       56.4520000000      208.3720000000
H                65.4180000000       58.0450000000      207.8240000000
H                64.7520000000       56.6690000000      208.2560000000
H                64.7980000000       57.8850000000      209.2770000000
H                67.5620000000       58.7220000000      208.6370000000
H                67.0080000000       58.6780000000      210.1250000000
H                68.3070000000       57.8510000000      209.7360000000
N                65.6840000000       53.8530000000      209.4480000000
C                64.7120000000       52.7680000000      209.2970000000
C                64.1540000000       52.3430000000      210.6630000000
O                62.9480000000       52.0740000000      210.7990000000
C                65.3260000000       51.5660000000      208.5590000000
C                65.8010000000       51.9730000000      207.1740000000
C                64.2930000000       50.4490000000      208.5280000000
C                66.5630000000       50.8720000000      206.4640000000
H                66.4740000000       53.6870000000      209.1510000000
H                63.9820000000       53.1080000000      208.7570000000
H                66.1140000000       51.2450000000      209.0250000000
H                65.0300000000       52.2020000000      206.6310000000
H                66.3890000000       52.7400000000      207.2550000000
H                64.6650000000       49.6870000000      208.0570000000
H                64.0710000000       50.1990000000      209.4380000000
H                63.4990000000       50.7660000000      208.0690000000
H                66.7780000000       51.1660000000      205.5650000000
H                67.3790000000       50.6850000000      206.9550000000
H                66.0090000000       50.0760000000      206.4280000000
N                65.0300000000       52.2310000000      211.6850000000
C                64.5740000000       51.8690000000      213.0310000000
C                63.5630000000       52.8890000000      213.5400000000
O                62.4890000000       52.5320000000      214.0350000000
C                65.7540000000       51.7510000000      214.0130000000
C                66.2840000000       50.3210000000      214.3500000000
C                67.2960000000       50.2740000000      215.5730000000
C                68.3530000000       49.1280000000      215.4160000000
N                69.1810000000       49.1980000000      214.0870000000
H                65.8780000000       52.3590000000      211.6200000000
H                64.1550000000       50.9960000000      212.9840000000
H                66.5010000000       52.2430000000      213.6380000000
H                65.4810000000       52.1520000000      214.8530000000
H                65.5280000000       49.7550000000      214.5730000000
H                66.7450000000       49.9690000000      213.5730000000
H                67.7710000000       51.1180000000      215.6280000000
H                66.8010000000       50.1180000000      216.3920000000
H                68.9800000000       49.1790000000      216.1550000000
H                67.8920000000       48.2750000000      215.4300000000
H                69.7770000000       48.5380000000      214.0640000000
H                68.6380000000       49.1220000000      213.3860000000
H                69.6100000000       49.9760000000      214.0360000000
N                63.8840000000       54.1740000000      213.4130000000
C                63.0540000000       55.1980000000      214.0330000000
C                61.6710000000       55.1930000000      213.4080000000
O                60.6390000000       55.2170000000      214.0960000000
C                63.7190000000       56.5710000000      213.8900000000
C                62.7260000000       57.6380000000      214.3310000000
C                65.0120000000       56.5810000000      214.6540000000
H                64.5660000000       54.4730000000      212.9820000000
H                62.9630000000       54.9990000000      214.9780000000
H                63.9540000000       56.7710000000      212.9700000000
H                63.1600000000       58.5050000000      214.3010000000
H                61.9650000000       57.6290000000      213.7300000000
H                62.4360000000       57.4450000000      215.2360000000
H                65.4530000000       57.4340000000      214.5170000000
H                64.8220000000       56.4550000000      215.5970000000
H                65.5760000000       55.8620000000      214.3310000000
N                61.6470000000       55.1800000000      212.0780000000
C                60.4070000000       55.2100000000      211.3100000000
C                59.5710000000       53.9750000000      211.5950000000
O                58.3510000000       54.0500000000      211.7880000000
C                60.7520000000       55.3380000000      209.8190000000
C                61.1490000000       56.7920000000      209.5520000000
C                59.6120000000       54.8200000000      208.9360000000
C                61.5810000000       56.9180000000      208.1500000000
H                62.3510000000       55.1540000000      211.5840000000
H                59.8790000000       55.9790000000      211.5780000000
H                61.5070000000       54.7740000000      209.5880000000
H                60.3890000000       57.3750000000      209.7030000000
H                61.8830000000       57.0460000000      210.1330000000
H                59.8510000000       54.9470000000      208.0040000000
H                59.4750000000       53.8770000000      209.1160000000
H                58.8030000000       55.3160000000      209.1400000000
H                61.8400000000       57.8380000000      207.9810000000
H                62.3360000000       56.3290000000      207.9980000000
H                60.8450000000       56.6700000000      207.5690000000
N                60.2120000000       52.8190000000      211.6100000000
C                59.5330000000       51.5920000000      211.9890000000
C                58.8820000000       51.7250000000      213.3720000000
O                57.7820000000       51.2020000000      213.6000000000
C                60.5640000000       50.4710000000      211.9180000000
O                59.9180000000       49.2340000000      211.8650000000
H                61.0410000000       52.7150000000      211.4040000000
H                58.8060000000       51.3800000000      211.3830000000
H                61.1050000000       50.5840000000      211.1210000000
H                61.1270000000       50.5030000000      212.7080000000
H                60.4850000000       48.6150000000      211.8400000000
N                59.5350000000       52.4450000000      214.2950000000
C                58.9390000000       52.7090000000      215.6000000000
C                57.7690000000       53.6780000000      215.4700000000
O                56.7050000000       53.4770000000      216.0690000000
C                59.9920000000       53.2640000000      216.5660000000
O                59.3610000000       53.9380000000      217.6480000000
H                60.3170000000       52.7870000000      214.1870000000
H                58.6100000000       51.8740000000      215.9680000000
H                60.5220000000       52.5310000000      216.9140000000
H                60.5610000000       53.8890000000      216.0910000000
H                59.9400000000       54.2240000000      218.1850000000
N                57.9490000000       54.7550000000      214.7100000000
C                56.8430000000       55.6870000000      214.5360000000
C                55.6260000000       54.9810000000      213.9710000000
O                54.4990000000       55.2820000000      214.3640000000
C                57.2430000000       56.8490000000      213.6350000000
H                58.6760000000       54.9610000000      214.3000000000
H                56.6180000000       56.0560000000      215.4040000000
H                56.4920000000       57.4580000000      213.5540000000
H                58.0000000000       57.3090000000      214.0300000000
H                57.4840000000       56.5030000000      212.7610000000
N                55.8240000000       54.0140000000      213.0720000000
C                54.6670000000       53.3580000000      212.4680000000
C                53.9840000000       52.3880000000      213.4170000000
O                52.7640000000       52.2540000000      213.3910000000
C                55.0230000000       52.5800000000      211.2220000000
S                55.5250000000       53.6510000000      209.9350000000
H                56.5910000000       53.7300000000      212.8050000000
H                54.0660000000       54.0830000000      212.2320000000
H                55.7540000000       51.9730000000      211.4190000000
H                54.2480000000       52.0800000000      210.9220000000
H                56.4660000000       54.2970000000      210.3080000000
N                60.3180000000       46.6640000000      207.3850000000
C                61.6100000000       47.3300000000      207.3530000000
C                62.2410000000       47.2420000000      205.9630000000
O                62.8350000000       48.2170000000      205.4890000000
C                62.5120000000       46.7450000000      208.4440000000
C                62.1600000000       47.2370000000      209.8980000000
C                61.8370000000       46.0640000000      210.8400000000
C                60.3980000000       45.5200000000      210.6070000000
N                60.1160000000       44.2790000000      211.3950000000
H                60.2510000000       46.0090000000      207.9390000000
H                61.5020000000       48.2740000000      207.5480000000
H                62.4280000000       45.7780000000      208.4310000000
H                63.4290000000       47.0010000000      208.2590000000
H                62.9170000000       47.7210000000      210.2630000000
H                61.3830000000       47.8170000000      209.8590000000
H                62.4650000000       45.3420000000      210.6800000000
H                61.9040000000       46.3630000000      211.7600000000
H                59.7570000000       46.1970000000      210.8730000000
H                60.2870000000       45.3100000000      209.6660000000
H                59.2820000000       44.0060000000      211.2450000000
H                60.6790000000       43.6320000000      211.1570000000
H                60.2140000000       44.4420000000      212.2640000000
N                60.5410000000       49.9900000000      203.8790000000
C                60.9680000000       51.3290000000      204.2860000000
C                62.3180000000       51.6590000000      203.6780000000
O                62.5150000000       52.7350000000      203.1000000000
C                61.0110000000       51.4330000000      205.8190000000
C                59.5790000000       51.2600000000      206.3480000000
C                61.6150000000       52.7420000000      206.2680000000
C                59.5020000000       50.9610000000      207.7810000000
H                60.4840000000       49.4350000000      204.5340000000
H                60.3210000000       51.9710000000      203.9540000000
H                61.5800000000       50.7330000000      206.1770000000
H                59.0890000000       52.0830000000      206.1920000000
H                59.1580000000       50.5280000000      205.8710000000
H                61.5790000000       52.7910000000      207.2360000000
H                62.5360000000       52.7840000000      205.9680000000
H                61.1070000000       53.4730000000      205.8810000000
H                58.5700000000       50.8790000000      208.0370000000
H                59.9670000000       50.1280000000      207.9550000000
H                59.9190000000       51.6830000000      208.2770000000
N                63.2700000000       50.7300000000      203.7990000000
C                64.5740000000       50.9140000000      203.1710000000
C                64.5060000000       51.0250000000      201.6630000000
O                65.2250000000       51.8300000000      201.0590000000
H                63.1860000000       49.9940000000      204.2360000000
H                64.9800000000       51.7250000000      203.5150000000
H                65.1410000000       50.1580000000      203.3920000000
N                63.4340000000       54.5390000000      201.2390000000
C                64.5550000000       55.4150000000      201.5390000000
C                65.6380000000       55.3510000000      200.4750000000
O                66.1660000000       56.3930000000      200.0590000000
C                65.1500000000       55.1020000000      202.8900000000
C                64.4250000000       55.7640000000      204.0380000000
C                65.0580000000       55.2230000000      205.3310000000
C                64.5390000000       57.2550000000      203.9160000000
H                63.2250000000       53.9860000000      201.8640000000
H                64.2040000000       56.3190000000      201.5620000000
H                65.1160000000       54.1420000000      203.0310000000
H                66.0710000000       55.4060000000      202.9040000000
H                63.4740000000       55.5700000000      204.0460000000
H                64.6140000000       55.6260000000      206.0930000000
H                64.9500000000       54.2600000000      205.3560000000
H                66.0010000000       55.4510000000      205.3390000000
H                64.1540000000       57.6670000000      204.7050000000
H                65.4760000000       57.4950000000      203.8420000000
H                64.0600000000       57.5440000000      203.1240000000
N                64.2200000000       63.3610000000      205.6930000000
C                62.8560000000       62.9130000000      205.4540000000
C                61.9430000000       63.2340000000      206.6140000000
O                60.7290000000       63.1080000000      206.4780000000
C                62.8490000000       61.4130000000      205.1840000000
C                61.5120000000       60.8240000000      204.9710000000
C                61.6380000000       59.7550000000      204.0030000000
C                61.0710000000       60.1450000000      206.0800000000
H                64.7530000000       62.7260000000      205.9200000000
H                62.5020000000       63.3530000000      204.6650000000
H                63.3730000000       61.2430000000      204.3860000000
H                63.2480000000       60.9630000000      205.9460000000
H                60.9170000000       61.5480000000      204.7220000000
H                60.7780000000       59.3190000000      203.9010000000
H                61.9220000000       60.1300000000      203.1550000000
H                62.2970000000       59.1180000000      204.3200000000
H                60.2070000000       59.7500000000      205.8860000000
H                61.7110000000       59.4500000000      206.3000000000
H                60.9920000000       60.7670000000      206.8200000000
N                62.4980000000       63.6050000000      207.7550000000
C                61.6770000000       64.0250000000      208.8710000000
C                61.2030000000       65.4440000000      208.7050000000
O                60.1130000000       65.7580000000      209.1640000000
C                62.4500000000       63.9430000000      210.1840000000
C                63.0880000000       62.6050000000      210.5400000000
C                62.4060000000       61.3980000000      210.3880000000
C                64.3510000000       62.5650000000      211.1010000000
C                63.0100000000       60.1750000000      210.7570000000
C                64.9600000000       61.3820000000      211.4660000000
C                64.2910000000       60.1930000000      211.2910000000
O                64.9350000000       59.0500000000      211.6640000000
H                63.3440000000       63.6220000000      207.9070000000
H                60.9190000000       63.4220000000      208.9190000000
H                63.1680000000       64.5950000000      210.1490000000
H                61.8380000000       64.1620000000      210.9040000000
H                61.5430000000       61.3980000000      210.0410000000
H                64.8070000000       63.3640000000      211.2370000000
H                62.5570000000       59.3710000000      210.6440000000
H                65.8170000000       61.3880000000      211.8280000000
H                65.7350000000       59.2200000000      211.8550000000
N                53.9080000000       55.8480000000      205.7810000000
C                54.8830000000       56.5060000000      206.6460000000
C                54.4590000000       57.9220000000      206.9510000000
O                54.4880000000       58.3330000000      208.1110000000
C                56.2790000000       56.4860000000      206.0280000000
C                57.1460000000       57.4620000000      206.7740000000
C                56.7880000000       55.1000000000      206.1080000000
H                54.2080000000       55.6040000000      205.0120000000
H                54.9110000000       56.0060000000      207.4770000000
H                56.2780000000       56.7530000000      205.0960000000
H                58.0590000000       57.3790000000      206.4580000000
H                56.8200000000       58.3610000000      206.6120000000
H                57.1040000000       57.2610000000      207.7220000000
H                57.6530000000       55.0560000000      205.6700000000
H                56.8770000000       54.8500000000      207.0410000000
H                56.1620000000       54.5080000000      205.6640000000
O                66.8920000000       59.4200000000      213.5960000000
H                67.5690000000       59.8780000000      213.3790000000
H                66.4240000000       59.9180000000      214.0860000000
N                65.3690000000       51.7390000000      221.9749943848
C                65.6630000000       52.6740000000      220.8969943848
C                67.0580000000       53.2730000000      221.0519943848
O                67.7300000000       53.1340000000      222.1029943848
C                64.6840000000       53.8650000000      220.8119943848
C                63.2090000000       53.5460000000      220.7729943848
C                62.7930000000       52.9110000000      219.5049943848
O                63.4170000000       53.1660000000      218.4449943848
N                61.6860000000       52.1220000000      219.5569943848
H                65.5340000000       52.0280000000      222.7689943848
H                65.6050000000       52.1440000000      220.0859943848
H                64.8300000000       54.4270000000      221.5899943848
H                64.8870000000       54.3610000000      220.0029943848
H                62.9990000000       52.9360000000      221.4969943848
H                62.7050000000       54.3690000000      220.8749943848
H                61.2690000000       52.0150000000      220.3019943848
H                61.4030000000       51.7300000000      218.8459943848
N                67.4730000000       53.9740000000      219.9749943848
C                68.6760000000       54.7980000000      220.0259943848
C                68.2610000000       56.1720000000      220.5089943848
O                67.5000000000       56.8690000000      219.8369943848
C                69.4290000000       54.8920000000      218.6909943848
C                70.7810000000       55.6610000000      218.9679943848
C                69.6560000000       53.5320000000      218.0909943848
H                67.0700000000       53.9810000000      219.2159943848
H                69.2920000000       54.3900000000      220.6549943848
H                68.9090000000       55.3780000000      218.0309943848
H                71.2920000000       55.7060000000      218.1449943848
H                70.5770000000       56.5560000000      219.2799943848
H                71.2840000000       55.1810000000      219.6439943848
H                70.1680000000       53.6290000000      217.2729943848
H                70.1450000000       52.9850000000      218.7249943848
H                68.7970000000       53.1250000000      217.8969943848
N                68.9190000000       59.3010000000      218.0989943848
C                68.2310000000       59.2490000000      216.8049943848
C                66.7570000000       59.5510000000      217.0019943848
O                66.1350000000       60.2200000000      216.1749943848
C                68.3660000000       57.8730000000      216.1069943848
C                69.7970000000       57.5070000000      215.6999943848
C                70.3880000000       58.4360000000      214.6549943848
O                69.6970000000       58.8110000000      213.6629943848
O                71.5450000000       58.8650000000      214.8849943848
H                69.2320000000       58.5470000000      218.3719943848
H                68.6530000000       59.9020000000      216.2239943848
H                68.0490000000       57.1860000000      216.7149943848
H                67.8250000000       57.8800000000      215.3029943848
H                70.3650000000       57.5450000000      216.4859943848
H                69.7970000000       56.6090000000      215.3329943848
N                66.1750000000       59.0420000000      218.0899943848
C                64.7760000000       59.3170000000      218.3679943848
C                64.5890000000       60.8100000000      218.5989943848
O                63.5980000000       61.3720000000      218.1229943848
C                64.3110000000       58.4430000000      219.5369943848
C                62.8130000000       58.2950000000      219.6709943848
C                62.1750000000       57.3440000000      218.6609943848
O                62.7860000000       56.3400000000      218.3059943848
N                60.9110000000       57.6490000000      218.2069943848
H                66.5650000000       58.5420000000      218.6699943848
H                64.2020000000       59.0760000000      217.6249943848
H                64.6810000000       57.5540000000      219.4199943848
H                64.6390000000       58.8340000000      220.3619943848
H                62.6140000000       57.9550000000      220.5579943848
H                62.4040000000       59.1660000000      219.5499943848
H                60.5100000000       58.3540000000      218.4939943848
H                60.5230000000       57.1350000000      217.6379943848
N                64.5800000000       62.7560000000      215.3509943848
C                63.3130000000       62.6350000000      214.6479943848
C                62.3320000000       63.6610000000      215.1739943848
O                61.6900000000       64.3680000000      214.3989943848
C                62.7840000000       61.2410000000      214.8399943848
C                61.3270000000       61.0740000000      214.6039943848
C                60.8010000000       60.9180000000      213.3759943848
C                60.4650000000       61.1020000000      215.6689943848
C                59.4110000000       60.7170000000      213.2059943848
C                59.0980000000       60.9240000000      215.4959943848
C                58.5740000000       60.7420000000      214.2479943848
H                64.7740000000       62.0980000000      215.8699943848
H                63.4360000000       62.7880000000      213.6979943848
H                63.2460000000       60.6520000000      214.2229943848
H                62.9620000000       60.9700000000      215.7539943848
H                61.3570000000       60.9420000000      212.6299943848
H                60.8010000000       61.2440000000      216.5239943848
H                59.0730000000       60.5650000000      212.3529943848
H                58.5350000000       60.9280000000      216.2359943848
H                57.6580000000       60.6390000000      214.1259943848
H                54.5284354299       51.8561236276      214.0656120468
H                59.6804491787       47.2560315031      207.6152773317
H                62.1734985992       46.3948374971      205.4359712963
H                59.7286724317       50.0376363794      203.4944812136
H                63.8760608852       50.4447006698      201.1468320050
H                62.6999386036       55.0345259887      201.0789754370
H                65.9268913751       54.4667097370      200.1081587480
H                64.5491450256       63.7347963601      204.9433735375
H                61.7758325946       66.1098139165      208.2269261070
H                53.6018047160       55.1042361775      206.1848066671
H                54.1556541667       58.5233154627      206.2118105657
H                64.4946805614       51.5262148205      221.9580242127
H                68.6053717527       56.5206820762      221.3806760386
H                69.6166133609       59.8671322720      218.0457980568
H                65.2639296744       61.3221594000      219.1301842600
H                65.2503216190       62.8177851703      214.7536238801
H                62.2013604355       63.7685519447      216.1595733432
