 227 
 
N                27.8151000348       24.7662167753       85.0014697732
C                27.3055916210       23.4178439624       85.1000962921
C                26.0591068632       23.2189340417       84.2335689399
O                25.9273063018       22.2171472288       83.5413051039
C                26.9853482436       23.0426196315       86.5571926118
C                26.4091398885       21.6538536247       86.6690242490
C                27.1069874695       20.5443652452       86.2038542825
C                25.1613715608       21.4536048750       87.2448044743
C                26.5615915480       19.2750149185       86.2850194316
C                24.6267042360       20.1810370429       87.3574666314
C                25.3194648472       19.0880172377       86.8677718562
H                27.2578040341       25.4820587502       85.4581310422
H                28.0832795256       22.7515453020       84.7207047372
H                27.9111586427       23.1080343203       87.1339560561
H                26.2848701550       23.7732496304       86.9654623604
H                28.0905528644       20.6721185810       85.7799121135
H                24.6055664987       22.3023487435       87.6202541415
H                27.0972409989       18.4265359982       85.8863213341
H                23.6620688250       20.0466618824       87.8270827921
H                24.8952870459       18.0990854356       86.9490737623
N                23.2915174519       23.6852476206       81.2671498937
C                23.1973086241       24.0702719577       79.8651157756
C                22.4256562533       25.3966770813       79.7446725168
O                21.8909780155       25.9319493054       80.7029007474
C                22.4199251527       22.9268276341       79.2049760889
C                21.5127877531       22.4476022251       80.3384162891
C                22.3581988563       22.6261534337       81.6070862689
H                24.2120474184       24.1952831779       79.4791240039
H                21.8542894577       23.2604134794       78.3380893432
H                23.1070479789       22.1342772139       78.9106781847
H                20.6300766018       23.0838160452       80.4061651130
H                21.1995152592       21.4154445386       80.2073971187
H                21.7290308013       22.9034028264       82.4541433566
H                22.9192690395       21.7190232997       81.8566774061
N                12.9120699725       24.0148257192       83.8724087665
C                13.6627029095       22.8105165233       84.1625026324
C                13.3329596291       21.6938035724       83.1657929817
O                14.2119204594       20.9835551198       82.6918980039
C                13.3670329328       22.3373082745       85.5833671957
C                14.2895658901       21.1821524675       85.9756049168
C                14.2173866454       20.8203695263       87.4541723205
N                14.6820673844       21.9364655690       88.2541338667
C                14.8632791000       21.8989113101       89.5609471539
N                14.6239012984       20.7904340992       90.2572001095
N                15.2239143163       23.0239751418       90.1986079553
H                12.2788975166       24.3670458742       84.5836863964
H                14.7357296786       23.0187036589       84.0442434576
H                13.4912812242       23.1918270504       86.2507542590
H                12.3224213425       22.0243914629       85.6328823784
H                14.0387525889       20.2974192267       85.3919697497
H                15.3256590618       21.4227573283       85.7344807396
H                13.1907258277       20.5733462862       87.7385544724
H                14.8732778740       19.9618727890       87.6083021753
H                14.9425429825       22.7792666564       87.7583027870
H                14.5597505951       19.8961921471       89.7965474401
H                14.8470436076       20.7500903986       91.2394004635
H                15.2114506961       23.9061703671       89.7085254474
H                15.1904566411       23.0516650636       91.2059653922
N                15.2628938049       21.3822696765       80.1180915347
C                16.6346601167       20.9741444819       80.3067515955
C                16.7201941477       19.4573560526       80.5474862703
O                15.7645321122       18.7434089589       80.7909141509
C                17.2628909501       21.7651337029       81.4581188579
C                17.2321195764       23.2628878246       81.1758786513
S                18.2126959512       24.1577109980       82.4463252573
C                17.0891066596       25.5174350652       82.8498386370
H                14.6690272473       21.2241487361       80.9256178256
H                17.1574394143       21.1910721221       79.3656081030
H                16.6982804541       21.5533422259       82.3678369764
H                18.2937057008       21.4425244200       81.6089171461
H                17.6682431768       23.4844147494       80.2012063818
H                16.2104610923       23.6367859733       81.2065714020
H                17.4334367169       25.9529156907       83.7815782957
H                17.1187442126       26.2668790622       82.0642537858
H                16.0924201914       25.1062648263       82.9590881340
N                17.9691138244       18.9526349074       80.4201927681
C                18.1749691444       17.5643631950       80.0400874220
C                18.4962497230       16.6812232760       81.2506638111
O                19.5980829744       16.6714819050       81.7793704645
C                19.2576195417       17.4803759731       78.9421599344
C                20.6361954730       17.9572493205       79.3964949425
C                19.3461837215       16.0504947412       78.4155214623
H                18.7302238952       19.5829399229       80.2173678754
H                17.2213411261       17.2192762083       79.6182703300
H                18.9158555102       18.1312987895       78.1289257536
H                21.3016392446       17.9706990316       78.5376890595
H                20.6072895253       18.9595292422       79.8168898767
H                21.0400324527       17.2860469858       80.1463821783
H                20.0410398748       16.0061027858       77.5814765852
H                19.7037554619       15.3844545813       79.1956268200
H                18.3756385092       15.7021009834       78.0717100440
N                17.4721103027       15.9281445906       81.6848739526
C                17.5634853575       14.9205763023       82.7372360844
C                17.9021613522       15.5301232736       84.1202190812
O                18.4531680956       14.8706111324       84.9884644991
C                18.5801948980       13.8029824172       82.4247191823
C                18.0698843869       12.6329791303       81.5721376470
C                17.9588016419       12.9973367998       80.0931981586
C                19.0188229548       11.4428332973       81.7321226827
H                16.5748414747       16.0473420172       81.2383015891
H                16.5684053211       14.4750431755       82.8352518972
H                19.4475841510       14.2526509825       81.9425116424
H                18.8917713376       13.4040599131       83.3918694979
H                17.0830567494       12.3344486017       81.9421045340
H                17.5494239339       12.1623056971       79.5300668168
H                17.3113507552       13.8571861295       79.9441805263
H                18.9423765191       13.2258102131       79.6910430718
H                18.6747288493       10.6027689656       81.1337282566
H                20.0208508897       11.7056500896       81.4017021884
H                19.0656764835       11.1233449439       82.7702333214
N                17.5276290737       16.8040354138       84.3162001430
C                17.9925924274       17.5658502364       85.4612148640
C                16.8848288893       17.8258793713       86.4933040527
O                16.4550517568       18.9451396127       86.7100379490
C                18.5950763431       18.9045599211       85.0201086865
C                19.7158539161       18.7841708188       83.9914753939
C                21.0933807277       18.3863158213       84.5414061124
N                21.1197566963       17.1915495772       85.3638781864
C                21.2951231168       15.9258160292       84.9889307989
N                21.3759450447       15.5948916161       83.6985110915
N                21.4799863875       15.0142529403       85.9354743055
H                17.0357975926       17.3120930871       83.5944924971
H                18.7373345761       16.9451976311       85.9673240380
H                17.7879864067       19.5092061721       84.6009130298
H                18.9534572288       19.4132301425       85.9152693287
H                19.4264177798       18.0762483021       83.2219310798
H                19.8471159747       19.7570615092       83.5179760333
H                21.7688477535       18.2478439013       83.6954727443
H                21.4816495441       19.1963762013       85.1614136689
H                21.0773845267       17.3288757194       86.3609206535
H                20.9073444153       16.1689029943       83.0042011405
H                21.4562885053       14.6152059657       83.4772532883
H                21.4599751876       15.3044185724       86.9177052125
H                21.4989530213       14.0330956490       85.7198457543
N                16.4188830842       16.7379188718       87.1331409626
C                15.4206127081       16.8579897893       88.1757951864
C                15.9538345826       16.8216074366       89.6218192968
O                15.3382910117       17.3821225978       90.5178128066
C                14.3414608678       15.7810161630       88.0373329742
H                16.8621099129       15.8456443247       86.9752050494
H                14.9665187984       17.8452564062       88.0428645640
H                13.5953750076       15.9147499437       88.8158102654
H                13.8586825953       15.8555663433       87.0672075487
H                14.7796962259       14.7920701766       88.1432752088
N                17.0536208528       16.0723073048       89.8171902843
C                17.6255043787       15.8304998796       91.1210290278
C                18.7559311857       16.7947167272       91.5067122286
O                19.5249191724       16.5512643154       92.4320541393
C                18.0919995057       14.3518967816       91.2241558127
O                18.5053206778       14.0456158483       92.5306537310
C                19.1711621661       14.0156055175       90.1925911955
H                17.6958677066       15.9582636565       89.0357082763
H                16.8321597117       15.9903297334       91.8653693680
H                17.2179085260       13.7123458413       91.0438892838
H                19.1540862609       14.7209033594       92.7990355600
H                19.5544007483       13.0205862028       90.4021189113
H                18.7652436342       14.0288757894       89.1860234248
H                19.9976176250       14.7225421490       90.2443603335
N                18.7740274388       17.9450328883       90.8323065265
C                19.7354975381       19.0066059256       91.0523755097
C                18.9875866164       20.3060954512       90.7392604831
O                18.3409883452       20.4479959732       89.7116078537
C                20.9885391293       18.8748231330       90.1648158976
C                20.6491773380       18.6545221679       88.6881674932
C                20.3171735080       17.1684810946       88.3813902120
O                21.2930604095       16.3878558194       88.2901641420
O                19.1273972417       16.8537701637       88.1846919285
H                18.2497028742       18.0205583062       89.9688843805
H                20.0298274783       18.9586895522       92.1057275250
H                21.5807536546       19.7863733819       90.2774150126
H                21.5899879664       18.0348309483       90.5248060636
H                19.8061689975       19.2814524220       88.3937861144
H                21.5227745953       18.9144408184       88.0853052850
N                19.0169831452       21.2235909926       91.7180480533
C                18.3227811351       22.4787397675       91.5710811541
C                19.2248579760       23.5699646623       90.9897835939
O                20.4452194203       23.5304775370       90.9954754881
C                17.7778261019       22.9519559652       92.9194401689
H                19.6903716529       21.1394442529       92.4626791298
H                17.5244248891       22.2816198478       90.8474292642
H                17.1957372999       23.8620241054       92.8085851616
H                17.1661753978       22.1730797814       93.3656941846
H                18.6047526251       23.1655799243       93.5936974370
N                18.5036085936       24.5890563402       90.5004230034
C                19.0561708468       25.8822872869       90.2080891703
C                18.0079984649       26.9105703264       90.6389334120
O                16.8361713963       26.5872093923       90.7705857093
C                19.3863891820       25.9931623682       88.7072661473
C                18.1612043474       25.8352377320       87.8571033927
C                17.7388785756       24.5770719062       87.4515782937
C                17.4324648941       26.9509545139       87.4672670295
C                16.6216410704       24.4448672459       86.6458542802
C                16.3118014721       26.8178864795       86.6681977263
C                15.9056765923       25.5623595655       86.2525207658
H                17.4926018525       24.6012061261       90.5918783073
H                19.9747298932       26.0292877871       90.7882805082
H                19.8571815507       26.9603504729       88.5223592266
H                20.1034383886       25.2014902959       88.4802939859
H                18.3037011256       23.7046233842       87.7452891456
H                17.7544597037       27.9270628117       87.8033785161
H                16.3501732857       23.4654217327       86.2850505060
H                15.7688396698       27.6980855947       86.3614716452
H                15.0374744930       25.4578548504       85.6214132685
N                27.7994615763       13.8837902296       82.8333681176
C                27.5863015432       14.1553860137       81.4307240360
C                28.6336934519       15.1338157982       80.8448919331
O                28.4029481390       15.7922008869       79.8418947390
C                26.1621317383       14.6910871710       81.2086517028
C                25.7983163838       15.8670219855       82.1102582195
O                26.2723000243       16.0420140970       83.2288348889
N                24.8928867210       16.7012292476       81.5930752230
H                27.4251033653       14.6027314178       83.4528585650
H                27.7014079600       13.2076214075       80.8881553108
H                26.0678827761       14.9845886035       80.1630130363
H                25.4450779851       13.8938073378       81.4172287467
H                24.5461761836       17.4611183858       82.1588926084
H                24.4747613728       16.5425977659       80.6923406371
H                28.6326777609       24.8065516908       85.3755549994
H                25.3384661013       23.9122170699       84.2276078037
H                24.1574859631       23.6300417710       81.5060030953
H                22.3486290577       25.8515371410       78.8574469889
H                13.4819374618       24.6927249301       83.7120850174
H                12.3851603509       21.5333575875       82.8902324362
H                15.2338231440       22.2633053816       79.9366225757
H                18.2789418696       27.8568176512       90.8155846834
H                27.4004414505       13.1075816482       83.0531024511
H                29.5236563976       15.2381955831       81.2888185215
