 307 
 
N                57.2360000000       17.3380000000       11.0150000000
C                58.1690000000       16.7280000000       11.9560000000
C                59.3060000000       17.6780000000       12.2700000000
O                59.6020000000       17.9210000000       13.4260000000
C                58.7120000000       15.3870000000       11.4260000000
C                57.7120000000       14.2150000000       11.5630000000
S                58.3550000000       12.5350000000       11.1990000000
C                58.8860000000       11.9620000000       12.8630000000
H                56.9770000000       16.7380000000       10.2320000000
H                57.6100000000       16.4830000000       12.8590000000
H                58.9520000000       15.4990000000       10.3690000000
H                59.6100000000       15.1260000000       11.9860000000
H                57.3470000000       14.2000000000       12.5900000000
H                56.8850000000       14.3950000000       10.8760000000
H                59.2950000000       10.9550000000       12.7780000000
H                59.6480000000       12.6410000000       13.2460000000
H                58.0230000000       11.9580000000       13.5290000000
N                60.1710000000       19.8470000000       15.7500000000
C                61.4830000000       19.5330000000       16.2790000000
C                62.3300000000       20.7200000000       16.6950000000
O                63.1440000000       20.6030000000       17.6120000000
H                60.1370000000       19.9530000000       14.7360000000
H                61.3590000000       18.8970000000       17.1550000000
H                62.0400000000       18.9850000000       15.5190000000
N                59.5360000000       21.1390000000       20.9200000000
C                60.3910000000       20.1610000000       21.5780000000
C                61.2160000000       19.2970000000       20.6330000000
O                61.2190000000       19.5320000000       19.4250000000
H                59.8880000000       21.4810000000       20.0260000000
H                61.0830000000       20.6860000000       22.2360000000
H                59.7680000000       19.4960000000       22.1760000000
N                61.9140000000       18.2980000000       21.1790000000
C                62.7450000000       17.3950000000       20.3730000000
C                61.8940000000       16.4440000000       19.5340000000
O                60.7410000000       16.1700000000       19.8630000000
C                63.6880000000       16.5820000000       21.2680000000
O                64.4870000000       15.7000000000       20.4950000000
H                61.9270000000       18.0850000000       22.1770000000
H                63.3440000000       17.9980000000       19.6910000000
H                64.3400000000       17.2670000000       21.8100000000
H                63.0940000000       15.9980000000       21.9710000000
H                65.0850000000       15.1900000000       21.0800000000
N                62.4780000000       15.9270000000       18.4580000000
C                61.7590000000       15.0400000000       17.5550000000
C                61.1960000000       13.7400000000       18.1430000000
O                59.9920000000       13.6420000000       18.3850000000
C                62.6250000000       14.7120000000       16.3010000000
C                63.9400000000       14.0590000000       16.7100000000
C                61.8360000000       13.8250000000       15.3440000000
H                63.4450000000       16.1040000000       18.1870000000
H                60.8630000000       15.6120000000       17.3150000000
H                62.8730000000       15.6360000000       15.7790000000
H                64.5220000000       13.8420000000       15.8140000000
H                64.4910000000       14.7440000000       17.3550000000
H                63.7250000000       13.1350000000       17.2470000000
H                62.4540000000       13.6050000000       14.4730000000
H                61.5700000000       12.9000000000       15.8550000000
H                60.9330000000       14.3510000000       15.0350000000
N                62.0440000000       12.7450000000       18.3780000000
C                61.5500000000       11.4750000000       18.8960000000
C                62.3170000000       10.8540000000       20.0560000000
O                63.4260000000       11.2680000000       20.3960000000
C                61.4550000000       10.4580000000       17.7540000000
C                60.2420000000       10.6840000000       16.8660000000
O                59.1080000000       10.4990000000       17.3630000000
O                60.4190000000       11.0430000000       15.6770000000
H                63.0510000000       12.7880000000       18.2230000000
H                60.5860000000       11.7130000000       19.3450000000
H                62.3470000000       10.5370000000       17.1330000000
H                61.3820000000        9.4560000000       18.1760000000
N                61.6920000000        9.8400000000       20.6480000000
C                62.2360000000        9.0940000000       21.7770000000
C                61.6120000000        7.6910000000       21.7630000000
O                60.4280000000        7.5270000000       22.0580000000
C                61.9150000000        9.8380000000       23.0840000000
C                60.5070000000       10.3830000000       23.1510000000
C                59.4630000000        9.6110000000       23.6490000000
C                60.2230000000       11.6670000000       22.6990000000
C                58.1570000000       10.1090000000       23.6990000000
C                58.9220000000       12.1710000000       22.7460000000
C                57.8890000000       11.3870000000       23.2480000000
H                60.7750000000        9.5000000000       20.3580000000
H                63.3160000000        8.9800000000       21.6800000000
H                62.0440000000        9.1490000000       23.9190000000
H                62.6010000000       10.6790000000       23.1850000000
H                59.6640000000        8.6110000000       24.0030000000
H                61.0190000000       12.2820000000       22.3070000000
H                57.3590000000        9.4950000000       24.0900000000
H                58.7180000000       13.1710000000       22.3920000000
H                56.8820000000       11.7750000000       23.2850000000
N                62.4040000000        6.6850000000       21.3950000000
C                61.9120000000        5.3070000000       21.3260000000
C                63.0450000000        4.2940000000       21.2190000000
O                62.8230000000        3.0760000000       21.2530000000
C                60.9380000000        5.1520000000       20.1600000000
H                63.3860000000        6.7890000000       21.1400000000
H                61.3820000000        5.0870000000       22.2530000000
H                60.5850000000        4.1210000000       20.1270000000
H                60.0960000000        5.8290000000       20.3080000000
H                61.4540000000        5.3980000000       19.2320000000
N                64.2570000000        4.8110000000       21.0400000000
C                65.4240000000        3.9790000000       21.0150000000
C                65.5590000000        3.5000000000       22.4430000000
O                66.6580000000        3.2900000000       22.9510000000
C                66.6620000000        4.7600000000       20.6080000000
C                66.9500000000        5.9200000000       21.5700000000
C                67.9810000000        6.9150000000       21.0420000000
C                68.0680000000        8.1450000000       21.9470000000
N                69.2760000000        8.9740000000       21.6710000000
H                64.4480000000        5.8050000000       20.9110000000
H                65.3440000000        3.1660000000       20.2930000000
H                67.5240000000        4.0920000000       20.6110000000
H                66.5130000000        5.1730000000       19.6100000000
H                66.0240000000        6.4660000000       21.7500000000
H                67.3310000000        5.5130000000       22.5070000000
H                68.9610000000        6.4400000000       21.0100000000
H                67.6920000000        7.2410000000       20.0430000000
H                67.1880000000        8.7680000000       21.7880000000
H                68.1120000000        7.8200000000       22.9870000000
H                69.2950000000        9.7970000000       22.3060000000
H                70.1370000000        8.4100000000       21.8230000000
H                69.2610000000        9.3080000000       20.6860000000
N                64.4030000000        3.3100000000       23.1030000000
C                64.3820000000        3.0150000000       24.5180000000
C                64.6480000000        1.5870000000       25.0940000000
O                65.2440000000        1.5140000000       26.1720000000
C                63.0100000000        3.4720000000       25.0630000000
C                62.7290000000        4.9870000000       25.0910000000
C                61.4880000000        5.4120000000       25.8560000000
O                60.7190000000        4.5210000000       26.2410000000
O                61.3060000000        6.6250000000       26.0520000000
H                63.4790000000        3.3570000000       22.6740000000
H                65.2600000000        3.5550000000       24.8720000000
H                62.2360000000        3.0190000000       24.4440000000
H                62.9220000000        3.1160000000       26.0890000000
H                63.5810000000        5.4850000000       25.5550000000
H                62.6090000000        5.3320000000       24.0640000000
N                60.4570000000        0.0070000000       22.4050000000
C                59.4670000000        1.0340000000       22.6610000000
C                59.2430000000        1.6360000000       21.2960000000
O                58.3990000000        2.5040000000       21.0740000000
H                61.4220000000        0.3210000000       22.5040000000
H                58.5430000000        0.6100000000       23.0550000000
H                59.8390000000        1.7840000000       23.3590000000
N                60.0520000000        1.1450000000       20.3700000000
C                59.9860000000        1.5500000000       18.9850000000
C                58.5320000000        1.3660000000       18.5730000000
O                58.0390000000        2.0090000000       17.6540000000
C                60.8980000000        0.6450000000       18.1770000000
C                61.2790000000        1.1780000000       16.8120000000
C                62.4990000000        0.4320000000       16.3130000000
C                60.1020000000        1.0470000000       15.8630000000
H                60.7770000000        0.4520000000       20.5540000000
H                60.3220000000        2.5700000000       18.7990000000
H                61.8200000000        0.4940000000       18.7390000000
H                60.3920000000       -0.3090000000       18.0270000000
H                61.5330000000        2.2370000000       16.8620000000
H                62.7730000000        0.8160000000       15.3300000000
H                63.3200000000        0.5850000000       17.0140000000
H                62.2620000000       -0.6300000000       16.2440000000
H                60.3900000000        1.4330000000       14.8850000000
H                59.8280000000       -0.0050000000       15.7810000000
H                59.2630000000        1.6200000000       16.2570000000
N                55.9280000000        2.1400000000       20.3030000000
C                55.2860000000        3.4010000000       20.6020000000
C                55.5420000000        4.4080000000       19.4970000000
O                54.6130000000        5.0100000000       18.9710000000
C                55.8070000000        3.9620000000       21.9510000000
C                54.6750000000        4.6850000000       22.6970000000
C                56.9990000000        4.8980000000       21.7160000000
C                53.6400000000        3.7510000000       23.3580000000
H                56.5540000000        1.8160000000       21.0400000000
H                54.2130000000        3.2200000000       20.6730000000
H                56.1460000000        3.1300000000       22.5690000000
H                55.1150000000        5.2970000000       23.4840000000
H                54.1410000000        5.3170000000       21.9880000000
H                57.3460000000        5.2780000000       22.6770000000
H                57.7970000000        4.3400000000       21.2270000000
H                56.6810000000        5.7250000000       21.0820000000
H                52.8840000000        4.3560000000       23.8580000000
H                53.1750000000        3.1360000000       22.5880000000
H                54.1480000000        3.1160000000       24.0850000000
N                56.8090000000        4.5730000000       19.1460000000
C                57.1960000000        5.5250000000       18.1290000000
C                56.2420000000        5.4930000000       16.9490000000
O                55.7430000000        6.5150000000       16.5240000000
C                58.6070000000        5.2100000000       17.6830000000
C                59.2790000000        6.2950000000       16.8900000000
C                60.6770000000        5.8750000000       16.4200000000
O                61.5710000000        5.5810000000       17.2330000000
N                60.8700000000        5.8410000000       15.0990000000
H                57.5910000000        4.0590000000       19.5510000000
H                57.1750000000        6.5330000000       18.5440000000
H                59.2160000000        5.0270000000       18.5680000000
H                58.5800000000        4.3170000000       17.0580000000
H                58.6770000000        6.5220000000       16.0100000000
H                59.3810000000        7.1840000000       17.5120000000
H                60.1090000000        6.0870000000       14.4660000000
H                61.7780000000        5.5690000000       14.7230000000
N                55.9730000000        4.3050000000       16.4330000000
C                55.0740000000        4.1580000000       15.2940000000
C                53.6810000000        4.6820000000       15.6080000000
O                52.9570000000        5.1300000000       14.7200000000
C                54.9670000000        2.6830000000       14.8890000000
O                54.2040000000        1.9330000000       15.8270000000
H                56.3570000000        3.4250000000       16.7760000000
H                55.4890000000        4.7250000000       14.4610000000
H                54.4830000000        2.6210000000       13.9140000000
H                55.9700000000        2.2600000000       14.8350000000
H                54.6930000000        1.8570000000       16.6730000000
N                53.3000000000        4.6050000000       16.8770000000
C                51.9830000000        5.0600000000       17.3040000000
C                52.0060000000        6.5750000000       17.4430000000
O                51.1270000000        7.2830000000       16.9370000000
C                51.5920000000        4.4380000000       18.6660000000
C                50.1410000000        4.7860000000       18.9970000000
C                51.7940000000        2.9260000000       18.6310000000
H                53.8770000000        4.2340000000       17.6320000000
H                51.2550000000        4.7450000000       16.5560000000
H                52.2300000000        4.8440000000       19.4510000000
H                49.8800000000        4.3420000000       19.9580000000
H                50.0390000000        5.8700000000       19.0490000000
H                49.4940000000        4.3890000000       18.2150000000
H                51.5130000000        2.5080000000       19.5980000000
H                51.1670000000        2.5020000000       17.8470000000
H                52.8430000000        2.7130000000       18.4240000000
N                53.0270000000        7.0520000000       18.1460000000
C                53.2380000000        8.4730000000       18.3860000000
C                53.1080000000        9.2230000000       17.0590000000
O                52.4810000000       10.2810000000       16.9800000000
C                54.6390000000        8.6760000000       19.0400000000
C                54.5560000000        8.2640000000       20.5190000000
C                55.1440000000       10.1000000000       18.8380000000
C                55.8830000000        8.2160000000       21.2410000000
H                53.7440000000        6.4660000000       18.5740000000
H                52.4870000000        8.8630000000       19.0740000000
H                55.3740000000        8.0370000000       18.5510000000
H                53.9240000000        8.9810000000       21.0430000000
H                54.1160000000        7.2680000000       20.5760000000
H                56.1220000000       10.2000000000       19.3080000000
H                55.2230000000       10.3000000000       17.7690000000
H                54.4390000000       10.7950000000       19.2950000000
H                55.7140000000        7.9150000000       22.2750000000
H                56.5310000000        7.4930000000       20.7450000000
H                56.3390000000        9.2060000000       21.2110000000
N                53.6860000000        8.6420000000       16.0160000000
C                53.6400000000        9.2170000000       14.6810000000
C                52.2520000000        8.9580000000       14.0960000000
O                51.7340000000        9.7720000000       13.3420000000
C                54.7270000000        8.5800000000       13.8050000000
C                56.1430000000        8.8780000000       14.3070000000
O                56.6920000000        9.9500000000       13.9660000000
O                56.7070000000        8.0400000000       15.0510000000
H                54.2000000000        7.7620000000       16.0630000000
H                53.8430000000       10.2880000000       14.6960000000
H                54.5910000000        7.4980000000       13.8010000000
H                54.6400000000        8.9700000000       12.7910000000
N                49.8790000000        9.2000000000       15.5490000000
C                49.2440000000       10.3530000000       16.1380000000
C                49.6210000000       11.6040000000       15.3460000000
O                48.7240000000       12.2760000000       14.8350000000
C                49.6070000000       10.4820000000       17.6510000000
C                48.8830000000        9.3820000000       18.4500000000
C                49.1990000000       11.8370000000       18.1810000000
C                48.9840000000        9.5140000000       19.9620000000
H                50.6300000000        8.8120000000       16.1200000000
H                48.1630000000       10.2290000000       16.0830000000
H                50.6860000000       10.3700000000       17.7580000000
H                47.8250000000        9.4060000000       18.1900000000
H                49.3120000000        8.4180000000       18.1770000000
H                49.4630000000       11.8990000000       19.2370000000
H                49.7240000000       12.6100000000       17.6200000000
H                48.1220000000       11.9560000000       18.0590000000
H                48.4410000000        8.6910000000       20.4270000000
H                50.0340000000        9.4770000000       20.2520000000
H                48.5480000000       10.4660000000       20.2650000000
N                50.9110000000       11.9120000000       15.1880000000
C                51.2530000000       13.1200000000       14.4220000000
C                50.9690000000       13.0170000000       12.9010000000
O                50.7870000000       14.0330000000       12.2350000000
C                52.7340000000       13.5970000000       14.6790000000
C                53.7250000000       12.7690000000       13.8920000000
C                53.0870000000       13.4710000000       16.1410000000
C                55.1290000000       13.2310000000       14.1230000000
H                51.7000000000       11.3790000000       15.5550000000
H                50.5850000000       13.8890000000       14.8110000000
H                52.7870000000       14.6380000000       14.3590000000
H                53.6510000000       11.7270000000       14.2020000000
H                53.5050000000       12.8580000000       12.8280000000
H                54.1140000000       13.8060000000       16.2880000000
H                52.4060000000       14.0900000000       16.7250000000
H                52.9900000000       12.4280000000       16.4410000000
H                55.8080000000       12.6090000000       13.5390000000
H                55.2160000000       14.2720000000       13.8100000000
H                55.3620000000       13.1410000000       15.1840000000
H                56.4747643642       17.5537796426       11.4439049459
H                59.8173905528       18.1088391812       11.5264562538
H                59.5957039902       19.1884640339       15.9629903341
H                62.2274077046       21.5966768658       16.2249867088
H                58.7298466668       20.7728930034       20.7584993177
H                64.3385036578        0.7796042292       24.5916812930
H                60.3408902686       -0.6729706357       22.9830644123
H                57.9548852033        0.7076058954       19.0561725515
H                55.3016535788        1.5047387643       20.1841163466
H                51.7601178289        8.1188956482       14.3282839137
H                49.2688094834        8.5493584826       15.4292788685
H                50.9334399111       12.1209098285       12.4585546536
