 222 
 
N                -3.0891815180       39.5901844182       76.9675687953
C                -3.3118340335       39.3374171269       78.3802834423
C                -2.2543640416       38.3599096273       78.9881692807
O                -2.5034606530       37.6786755778       79.9984000959
C                -4.7310143408       38.7762126765       78.5888916533
C                -5.0414349959       37.5567892479       77.7006345075
O                -4.5559258970       37.4091585433       76.5379198364
N                -5.8825368152       36.7015775441       78.2711042641
H                -3.4327009721       38.8685037295       76.3552410098
H                -3.2073174295       40.2715536921       78.9175870782
H                -4.8379425891       38.4868920619       79.6283558752
H                -5.4489452161       39.5375690568       78.3389890186
H                -6.2048429696       35.8861394812       77.6626223950
H                -6.2951582636       36.8255316814       79.1193252140
N                -1.0768712454       38.3366221975       78.3401202983
C                 0.0410126472       37.4612301006       78.6530422499
C                 1.2898380641       38.3254701790       78.9866206757
O                 1.4467124836       39.4622176494       78.5650494416
C                 0.3603540993       36.5675587712       77.4381022182
C                -0.8174368319       35.7259584112       76.9602520466
C                -0.9906279144       34.3684614419       77.6556377164
C                -0.3126164266       33.2155965845       76.8638074191
N                -1.0539433386       31.9575864484       77.0863699742
H                -0.9415015187       38.9361632261       77.5376202457
H                -0.2472779811       36.8703243969       79.5216057048
H                 0.6545532564       37.2473273348       76.6256133573
H                 1.2127649823       35.9418361058       77.6876886267
H                -1.7350845264       36.3201381211       77.1031419855
H                -0.7241192986       35.5747780619       75.8874963374
H                -0.6043415276       34.4391411258       78.6677144294
H                -2.0629267764       34.1706126234       77.7064844106
H                -0.3172024751       33.4345214412       75.8164021930
H                 0.7148701770       33.0878401328       77.2144641725
H                -0.7359050416       31.1467251820       76.5476041235
H                -1.0089667395       31.6753469864       78.1040175666
H                -2.0647192509       32.0970561616       76.8932780501
N                 2.2054403072       37.7137915165       79.7323536702
C                 3.3719212992       38.4144460858       80.1983297381
C                 4.6265107088       37.8980867092       79.5292324730
O                 4.9317703435       36.7082555321       79.5455383099
C                 3.5188048475       38.2171943328       81.7623546594
C                 2.3883777783       38.9770790616       82.4901576793
C                 4.8859182859       38.6999888581       82.2301106361
C                 2.1067976316       38.4021121475       83.8575017421
H                 2.0160622324       36.7894510977       80.1460606503
H                 3.2148110088       39.4707745874       80.0085626001
H                 3.4166380509       37.1509931506       81.9656806177
H                 2.6494778088       40.0240187998       82.5472904328
H                 1.4701946291       38.8824664911       81.8752329470
H                 4.9616871660       38.5967012504       83.3004684850
H                 5.6818061840       38.1305258602       81.7697784491
H                 5.0160702185       39.7560621472       81.9762537590
H                 1.2375797666       38.9064841538       84.2965543626
H                 1.9055547543       37.3420754407       83.8037036300
H                 2.9434563824       38.5705431174       84.5224737937
N                 3.6776853173       34.2331988592       79.2502972134
C                 3.2627173176       33.5490383713       80.4164910546
C                 1.9026560094       34.0292356203       80.9107977838
O                 1.6566979658       35.2206119945       80.9918956820
C                 4.3483354214       33.7522830420       81.5496840848
C                 4.1299352439       32.7273746119       82.6798677951
C                 5.7399984862       33.5522640901       80.9645398510
H                 4.0207113896       35.1773950563       79.3593339912
H                 3.2325872164       32.4757259166       80.1810254758
H                 4.2602176179       34.7544411448       81.9257206552
H                 4.9303231325       32.8280627700       83.3832048593
H                 3.1758737905       32.8956801362       83.1557353955
H                 4.1706561477       31.7185382110       82.2579506183
H                 6.4696693802       33.5317828959       81.7572268610
H                 5.7900143961       32.5658008227       80.4509401782
H                 5.9921017684       34.3139863501       80.2527841004
N                 0.9667215497       33.0853441345       81.1920149577
C                -0.2619056834       33.4517770320       81.8906649130
C                -0.0134441411       34.3883678326       83.1015236651
O                 0.8908377684       34.2774657745       83.8522325324
C                -0.8422832525       32.1080406510       82.4111709489
C                -0.2606383312       31.0893016263       81.4480286844
C                 1.1154901481       31.6407747915       81.1539894868
H                -0.9384302339       33.9378044700       81.1898848482
H                -0.4604898757       31.9412880640       83.4297207810
H                -1.9135015405       32.1422713615       82.4820465493
H                -0.2229381571       30.0892725510       81.8637712162
H                -0.8533283722       31.0767202291       80.5357659103
H                 1.8163789397       31.3151230460       81.9757623299
H                 1.5349042268       31.3196433284       80.2269540121
N                -1.0084232826       35.2955285003       83.2336960908
C                -1.0538531459       36.2615845085       84.3030479255
C                -0.9118726434       35.5663415503       85.6523193566
O                -0.1427112818       36.0332206172       86.5362375703
C                -2.3475008461       37.0800792573       84.1450311921
C                -2.3525279304       38.3895902839       84.9190841162
C                -3.4099841094       39.2938605447       84.4307826163
O                -4.6878267230       38.9343538691       84.5071998261
N                -3.0114143220       40.4471868870       83.9216522926
H                -1.7917007910       35.2927738909       82.5913683281
H                -0.1897777001       36.9325250367       84.2077561628
H                -2.4334199742       37.3167914663       83.0810116894
H                -3.2059419666       36.4712294663       84.4274320634
H                -2.5259792091       38.1808860333       85.9859365262
H                -1.3803274850       38.8819355219       84.8178118696
H                -2.1400130444       40.7273491923       83.8801849225
H                -3.7978911932       41.1245054686       83.5744728640
N                -1.6198571692       34.4652224337       85.8476287315
C                -1.6125988786       33.7855398264       87.1112011057
C                -0.9703343990       32.4327157192       87.0156875969
O                -1.5652366124       31.3304124161       87.1543816324
C                -3.0407289633       33.6787950341       87.7288406761
C                -4.1949840864       33.8206817743       86.7121206914
C                -4.1293211057       32.7763531642       85.5702288386
O                -3.3632585678       33.0395783383       84.6071612016
O                -4.8552782866       31.7891968320       85.6471450431
H                -2.2652132262       34.0416786022       85.1518819162
H                -1.0051001408       34.4047750960       87.7951690366
H                -3.1118385373       32.7070542641       88.2063664891
H                -3.1647845892       34.4628060314       88.4851552498
H                -5.1270943381       33.6696177408       87.2625329363
H                -4.1891366394       34.8189913729       86.2753277985
N                 0.3641519461       32.5301298045       86.8484644208
C                 1.2173746837       31.3361482358       86.9206651034
C                 2.2094557643       31.5714823929       88.0839780444
O                 2.7243106186       32.6739718516       88.2403234508
C                 2.0221375962       31.1746398980       85.6122769195
C                 2.4783591770       29.7438620150       85.3747131910
C                 1.2791635555       28.8087012371       85.1464010810
C                 3.3936721910       29.7290844972       84.1360933093
H                 0.7954073558       33.3899422671       86.7333706757
H                 0.5940946327       30.4826788923       87.1213339539
H                 1.3818772853       31.5000412951       84.8047932480
H                 2.8820214868       31.8388645486       85.6595864683
H                 3.0375390957       29.3911081088       86.2584673637
H                 1.6223543681       27.8541796541       84.7591862445
H                 0.7603007109       28.6260178208       86.0895894980
H                 0.5858845932       29.2547641289       84.4548698839
H                 3.7828722219       28.6949528667       84.0070545605
H                 2.8682417535       30.0119088282       83.2793563764
H                 4.2565374529       30.3679759647       84.3136332768
N                 2.5785425895       34.9816466373       91.7864026222
C                 2.0766655330       34.9824297477       90.4483643410
C                 2.9570511854       35.8752052255       89.5086282138
O                 3.5799183017       36.8387878125       89.8906892085
C                 0.6416350808       35.5805473964       90.3783420015
O                 0.6668196888       36.9693769865       90.6626738141
C                -0.3102205349       34.8101952991       91.2819445164
H                 2.2835568253       35.7617191812       92.3739977862
H                 2.0798469901       33.9526904295       90.0604624691
H                 0.3055033841       35.5154785820       89.3263339987
H                 0.8548530656       37.0456231958       91.6372585113
H                -1.3200984137       35.1827270649       91.1406528920
H                -0.2760219348       33.7560044807       91.0607478954
H                -0.0217441579       34.9790724806       92.3209678113
N                 2.8858305809       35.5017867189       88.2252217768
C                 3.5858506097       36.2244773742       87.2383507692
C                 3.0923901108       37.6672349049       87.1397752689
O                 3.8087183223       38.5665407191       86.8301780604
C                 3.4781901417       35.5167623818       85.8843635944
C                 4.3320279183       34.2644628673       85.9010616803
S                 6.0952729587       34.7195775956       85.9080758953
C                 6.7486043441       33.0692027945       86.0187823606
H                 2.5670872632       34.5472078212       88.0128377560
H                 4.6576189021       36.2995978597       87.4746673891
H                 2.4238460564       35.2655730448       85.6787553406
H                 3.8140688955       36.1825129978       85.0881753096
H                 4.1410025181       33.6671071809       86.7840710326
H                 4.1382726707       33.6784657279       85.0015343215
H                 7.8021581741       33.1455721244       86.3001901279
H                 6.2118327044       32.5443817039       86.8247764561
H                 6.6474692359       32.5530122357       85.0849042071
N                 1.7988620984       37.8429877573       87.3970640695
C                 1.2308601869       39.1656167367       87.4367825316
C                 1.9972736846       39.9499411419       88.4778404151
O                 2.4993425695       41.1147274997       88.1770072656
C                -0.2501161716       39.0725027981       87.8327235569
H                 1.1596216220       37.0593325023       87.4205410391
H                 1.3551100140       39.6700043552       86.4684584346
H                -0.7182211220       40.0529552657       87.7304800446
H                -0.7390069998       38.3697534544       87.1683331157
H                -0.3436846262       38.7242130784       88.8439501042
N                 3.4876344209       28.9922265263       76.1767226334
C                 3.6741200689       28.3522545308       77.4861560401
C                 2.7407903179       27.1385422163       77.6828137624
O                 2.0958012026       26.6159348908       76.7429009270
C                 3.3630611323       29.4491460528       78.4119997583
C                 4.0590210935       29.3635345891       79.7562257548
C                 1.8463425167       29.6492140377       78.4494729607
C                 5.5474298729       29.1031548799       79.5722801180
H                 2.8062600426       29.6852454631       76.1293292364
H                 4.7030402607       27.9655886035       77.4881334967
H                 3.8159467480       30.3458747807       77.9585628753
H                 3.9347920829       30.3483076903       80.2580907910
H                 3.6033531652       28.6474971216       80.4558476324
H                 1.4173094665       29.3057183877       79.3828901763
H                 1.6393353750       30.7353997056       78.3530763544
H                 1.3466547660       29.1564491480       77.6382466655
H                 6.0565167114       29.2731794699       80.5827289947
H                 5.7497486920       28.0813484817       79.3321929815
H                 5.9775011071       29.7860334151       78.8958279431
N                 2.6811077033       26.6611410221       78.8856085659
C                 1.5291624977       25.8545443934       79.2976222907
C                 0.7068029639       26.6610880478       80.3056041579
O                 1.0785981449       27.7360121541       80.7136936637
H                 3.0908822577       27.1789169328       79.6363824632
H                 0.9445169063       25.6072673147       78.4204954699
H                 1.8718300224       24.9118958482       79.7779339787
N                -0.4116192796       26.0737731245       80.7275304148
C                -1.0973208819       26.5686433372       81.9221724946
C                -1.5255868079       25.3153860950       82.7084760757
O                -1.7215032395       24.2536397683       82.0886197637
C                -2.2553400238       27.5302532776       81.5390336045
O                -2.3304238786       28.5618838086       82.5254437357
H                -0.6716433280       25.1330545736       80.4446289560
H                -0.3787384273       27.1547685679       82.4906249831
H                -2.0283711855       27.9325803356       80.5416116424
H                -3.2018108449       26.9824184022       81.4802662058
H                -2.8406055232       29.2759841249       82.1602885800
H                -3.5028187979       40.3534055207       76.7300866919
H                 5.2371443550       38.5319910607       79.0545833150
H                 4.3501386819       33.7803049569       78.8595369472
H                 2.4320988486       30.8242514504       88.7101377490
H                 2.3077228761       34.2342733974       92.2084096400
H                 2.1189106625       39.5750981527       89.3969145031
H                 4.2568096885       29.3835596568       75.9213253182
H                -1.6419296179       25.3630768701       83.7005395518
