 363 
 
N                54.6717889404       15.6527814185        6.4160574754
C                54.9549245997       15.2237795253        7.7648973917
C                56.3808466503       14.7885043971        7.9457677145
O                56.9385900888       15.2071853063        8.9787808317
C                53.8917638601       14.3232524554        8.4326351262
C                52.8892738990       13.8222816964        7.4142720541
C                54.4771481910       13.2113660921        9.2918398077
H                54.1533001580       15.0384730754        5.7984750778
H                54.9517054645       16.1678914811        8.3404511614
H                53.3267753174       14.9706352362        9.1215613798
H                52.1163475681       13.2323220114        7.9095339228
H                52.4002749839       14.6418297126        6.9028517464
H                53.3666510547       13.1737558718        6.6872687328
H                53.6726462432       12.6681113824        9.7794218103
H                55.0332923889       12.4995205711        8.6791680257
H                55.1511238740       13.6012918148       10.0455792696
N                57.0374153459       14.1580127326        6.9830904852
C                58.4665261302       14.0137494012        7.1517160033
C                59.3105287506       15.2811600074        6.8054590086
O                60.4976038427       15.2533026030        7.0967956455
C                59.1184474473       12.8444983255        6.3791486372
C                58.6142005885       11.4159873619        6.5746911995
C                58.3156391103       10.6986935595        5.1461330811
O                58.2797091564       11.3698978201        4.0805090184
O                58.0914341558        9.4714031869        5.2043718082
H                56.5920670227       13.8360643998        6.1230922628
H                58.6428128907       13.8577278290        8.2249667865
H                58.9834020782       13.0678991079        5.3069086135
H                60.1870588182       12.8986962101        6.5877360510
H                59.3178777332       10.7872715586        7.1103185309
H                57.6585951703       11.3905119289        7.1016699903
N                58.2823533966       19.0858853647        6.5723316407
C                57.7801424335       20.2622954663        7.2314423528
C                57.4903621574       19.9977225814        8.7016972298
O                58.3129129916       20.3239290668        9.5495415845
C                56.6012986499       20.7350812677        6.4110654457
C                57.2937264593       21.3662020654        5.2126797440
C                55.7361046569       21.7028221072        7.1538200853
C                56.3956442357       21.8856545841        4.1030364088
H                57.5958196328       18.3506835728        6.4441208952
H                58.5917544866       21.0008988700        7.2283327061
H                56.0156041050       19.8750877996        6.0852353840
H                57.8987963524       22.2062728489        5.5547036499
H                57.9658067468       20.6243823483        4.7714158598
H                54.9459728393       22.0740451707        6.5017704277
H                55.2568431785       21.2679097042        8.0210311272
H                56.3178999931       22.5636631569        7.4816778212
H                56.9902489081       22.1486878729        3.2339163685
H                55.6617363697       21.1384518631        3.8001858039
H                55.8540224898       22.7739424983        4.4196872225
N                56.3052721221       19.4344371596        8.9659530375
C                55.7442652512       19.3041539161       10.3045022704
C                56.6606287767       18.6357833675       11.2999110634
O                56.6322088919       18.8741025883       12.5057643750
C                54.5535285156       18.3430582033       10.2911728509
C                53.5216110990       18.6656882016        9.1419724224
C                53.9792813467       18.1614764149       11.7018332942
C                52.0581527738       18.9735313661        9.4937218900
H                55.8218280330       18.9863945670        8.1979394382
H                55.4570725870       20.2921456298       10.6767987317
H                54.9839008273       17.3654443312       10.0207820477
H                53.8852502925       19.5019401720        8.5503856853
H                53.5068710772       17.7869167177        8.4962444261
H                53.0971045303       17.5274973206       11.6591956927
H                54.6955865047       17.6935937096       12.3645321560
H                53.7003505814       19.1267889774       12.1167975365
H                51.4932324813       19.0394851143        8.5715280014
H                51.6127973617       18.2241688728       10.1340557198
H                51.9892170868       19.9338800132       10.0016151606
N                57.4657966236       17.6964055151       10.8144555351
C                58.3248518656       17.0269002416       11.7441034770
C                59.6284458814       17.7616538074       11.9610362405
O                60.1558466915       17.6102434360       13.0605694763
C                58.7340462713       15.6117987057       11.3604927188
C                57.6641296969       14.6119597834       11.7262774125
S                58.2661044231       12.8416698302       11.6124300446
C                58.9957717163       12.5606463519       13.2788453438
H                57.3757196432       17.2992654555        9.8869366254
H                57.8276683901       16.9957115975       12.7215659870
H                58.9292577678       15.5385864966       10.2905384311
H                59.6463579963       15.3528274126       11.9017381378
H                57.3273969251       14.7502831959       12.7511022124
H                56.8305447045       14.6593247787       11.0341739264
H                59.6386135236       11.6946589102       13.1891498451
H                59.5648951035       13.4315139604       13.5778093251
H                58.2053048163       12.3401219300       13.9893777215
N                60.1408557897       18.5760694540       11.0230820117
C                61.1665314118       19.4364802184       11.5188709905
C                60.5176780015       20.3243140075       12.5717930825
O                61.1570633332       20.7391699441       13.5405239018
C                61.6723863799       20.1805022094       10.3045208787
C                61.6025799687       19.1292230781        9.2332086640
C                60.3138627799       18.3879492099        9.6002728601
H                61.9649400449       18.8753460312       12.0213158489
H                60.9804969375       20.9905753386       10.0589753030
H                62.6793671543       20.5608034007       10.4534786079
H                61.5550783538       19.5281262424        8.2230186379
H                62.4516817507       18.4474173657        9.2955945715
H                59.4768030832       18.7766984499        9.0367651128
H                60.3919116033       17.3179993277        9.3516101541
N                59.2488759382       20.7511359726       12.3755107800
C                58.8001046613       21.8654934500       13.2629359795
C                58.8499630588       21.4301102205       14.6895774163
O                59.5688860256       21.9973903914       15.5001134776
C                57.4404965062       22.4588600104       12.9390955480
C                57.5007783089       22.9879013667       11.5107618857
C                56.0804274474       23.3259105854       11.1099820762
C                58.4809730226       24.1311730770       11.3839525759
H                58.6878261144       20.4233593655       11.5945810937
H                59.5922660889       22.6227085557       13.1976688608
H                56.6781423922       21.6865229229       13.0309790095
H                57.2287835505       23.2541851713       13.6501057615
H                57.8314627890       22.1697811632       10.8608917301
H                56.0350713971       23.7359083170       10.1016204258
H                55.4525162486       22.4397958398       11.1365472646
H                55.6496616088       24.0589858724       11.7899293742
H                58.6618296032       24.3442713635       10.3376051677
H                58.0602771217       25.0276862672       11.8448957167
H                59.3920281902       23.8935028810       11.9127160685
N                58.0398098925       20.4314795688       14.9856700430
C                57.9629887141       20.0164389181       16.3398740790
C                59.3187452623       19.6274655137       16.9624053291
O                59.4025847811       19.3686245345       18.1551961572
C                56.8833081794       18.9625396658       16.4584330823
C                55.5327797896       19.4893984842       15.9501575579
C                56.7659827191       18.5608704443       17.9132351532
C                54.5775109781       18.3537706685       15.5535059372
H                57.6008368659       19.8714188900       14.2648033359
H                57.6500978541       20.8867997608       16.9474923693
H                57.1784328150       18.0849735154       15.8701292358
H                55.0637301050       20.0921236712       16.7295028714
H                55.6714590033       20.1126539903       15.0680872119
H                56.0068917295       17.7868593335       18.0455854908
H                57.6877532135       18.1660641835       18.3232593601
H                56.4637680011       19.4144275810       18.5193398253
H                53.6398467915       18.7539845949       15.1759847501
H                55.0289214493       17.7424249211       14.7735463888
H                54.3578855078       17.7054759946       16.3972678067
N                60.4015967801       19.6988049428       16.1800138679
C                61.7019043938       19.4142869694       16.7059189211
C                62.6833140414       20.5786519450       16.6435103816
O                63.8524454708       20.3659305656       16.9663088194
H                60.3331761391       19.7227279886       15.1725779021
H                61.5838917562       19.1817768600       17.7691907548
H                62.1482256978       18.5448945008       16.2040387646
N                62.2000432507       21.7487582736       16.1950818393
C                62.8791367176       23.0264728176       16.3685140849
C                62.2017185572       23.9232864549       17.3934466932
O                62.9210594408       24.7454894723       17.9410534068
C                63.1001246151       23.8810876912       15.1023050118
C                64.0830949506       23.1595089603       14.1822103503
C                64.6157417825       24.0113088365       13.0383317779
C                65.2292682852       23.1070829268       11.9686853948
N                66.6507971420       22.7655508409       12.2583062290
H                61.2647861651       21.7425956946       15.8061399721
H                63.8599680198       22.7775136653       16.7945293358
H                62.1375020173       24.0396498993       14.6168745943
H                63.5027747453       24.8336815660       15.4433971010
H                64.9052546529       22.8055828792       14.8040004470
H                63.5652208361       22.2740695680       13.8048773064
H                63.7983412333       24.5963439608       12.6333078848
H                65.3515016354       24.7195202448       13.4194353195
H                64.6709326011       22.1677799449       11.9243119322
H                65.2259307485       23.5742396956       10.9879077961
H                67.0601609096       22.1870239268       11.5113149811
H                67.2252143425       23.6151641448       12.3888984219
H                66.6993957284       22.2243615366       13.1385583045
N                60.8631724739       23.7531477003       17.4838929987
C                59.8337391134       24.4422001584       18.2823200276
C                59.3911818679       23.5632611483       19.5015513145
O                60.2893953347       23.1190656285       20.2086972784
C                58.7631800401       25.1335789330       17.3627043641
C                57.7393599335       24.2206340463       16.6636810095
C                59.4757017047       26.0089401738       16.2885895034
C                56.4652711691       24.9636120092       16.2231112437
H                60.4796477521       22.9736906125       16.9673858001
H                60.3774110415       25.2648000241       18.7787615152
H                58.2216848794       25.8094256980       18.0348904309
H                58.2225476770       23.8038016668       15.7777197738
H                57.5082251372       23.3582865509       17.2875209171
H                58.7367359405       26.6116506107       15.7754387973
H                60.1976036647       26.6635878665       16.7692161171
H                59.9962323308       25.3656568442       15.5882429227
H                55.6929283048       24.2484342258       15.9608364972
H                56.1039014449       25.6071641167       17.0199554393
H                56.6740475262       25.5903610902       15.3622361439
N                58.0954462642       23.3640917352       19.7655822207
C                57.4508737366       22.6618621903       20.8682882169
C                58.0876273736       21.4779551337       21.6036683023
O                57.4101949004       20.9539459597       22.4867473007
C                56.2235228852       21.9345736901       20.3342824846
C                55.0566022884       22.7367629778       19.9119146589
C                55.0900031301       23.6547182092       18.8715293364
C                53.8378524089       22.4562159558       20.5198486405
C                53.9348831943       24.3127965377       18.4635959738
C                52.6777387507       23.1006960484       20.1058785698
C                52.7190700524       24.0385289113       19.0776844722
H                57.4336724811       23.9469505215       19.2738510753
H                57.1641036088       23.3920303334       21.6346864988
H                56.5745381584       21.3079209511       19.4988350030
H                55.8798766501       21.2566911911       21.1145177971
H                55.9958080201       23.8471484455       18.3404770323
H                53.7971035612       21.7413843261       21.3282158336
H                53.9784499934       25.0402909613       17.6692968285
H                51.7396863333       22.8706388403       20.5901229203
H                51.8189717176       24.5417547464       18.7635292712
N                59.2360023993       21.0025572384       21.1512068724
C                59.9264069982       19.8553598154       21.6626492854
C                61.0574846599       19.4967374815       20.6851525936
O                61.3286896839       20.2262824100       19.7515171301
H                59.8295847180       21.5724431161       20.5421567235
H                60.3839679721       20.0726006304       22.6388299432
H                59.2386314814       19.0132522946       21.7907206046
N                61.7610352175       18.3788298452       21.0403248383
C                62.7900567564       17.6636170136       20.2862139464
C                62.2371406467       16.3089523880       19.7024268336
O                61.6032211067       15.5209804588       20.3899537386
C                63.9687260186       17.2793904269       21.1951026366
O                64.7948765066       16.4872109456       20.3816586787
H                61.3626498271       17.8159696640       21.7811772743
H                63.1342792022       18.3057678167       19.4716804312
H                64.4977447690       18.1688411643       21.5501706670
H                63.5742446464       16.7064635529       22.0425428119
H                65.3936126589       15.9601731460       20.9271469855
N                62.5042894364       16.0732736417       18.4095686628
C                61.6814240331       15.2000096280       17.5806704476
C                61.0317803513       14.0102097852       18.3349929794
O                59.8130743352       13.9110709467       18.3446970359
C                62.5026328064       14.8633882433       16.3160147922
C                63.7934447374       14.0972777419       16.6264360210
C                61.6420513959       14.1522284217       15.2683460607
H                63.0554937473       16.7507089982       17.8976137557
H                60.8000820373       15.7748811780       17.2473604614
H                62.7893983422       15.8338932983       15.8898448421
H                64.4504033831       14.1279090131       15.7622831030
H                64.3049161821       14.5403451920       17.4766931552
H                63.5750902937       13.0530936014       16.8381683405
H                62.2487052502       13.8802319412       14.4077612234
H                61.1914623706       13.2428109510       15.6638931635
H                60.8354085246       14.8036153749       14.9382915604
N                61.8567924780       13.1168159674       18.9130076445
C                61.4443245276       11.7921378777       19.3278529173
C                62.3681532781       11.1413500796       20.3829258330
O                63.5087232542       11.4987727653       20.6294850437
C                61.3929642424       10.8545023025       18.1095618720
C                59.9803454836       10.9885886111       17.4558531798
O                59.0199309663       10.6017478207       18.1607794025
O                59.9933442846       11.4405824555       16.2940776939
H                62.8528135347       13.2867486290       18.9140476891
H                60.4285098642       11.8569493637       19.7378302433
H                62.1640243271       11.1182513512       17.3854329381
H                61.5197521561        9.8094882099       18.4036544052
N                53.7096576345        8.5376788318       15.7968272195
C                53.5175507151        9.0132280318       14.4627412780
C                52.1239897634        8.7175724584       14.0370029145
O                51.5587824487        9.5481004186       13.3455687388
C                54.5652111309        8.4324062905       13.5469628902
C                55.9001667483        9.1422202957       14.0208219701
O                56.1241799536       10.2236910881       13.4582926397
O                56.5581400024        8.5947139238       14.9315280603
H                54.4432427923        7.8487050279       15.9494765922
H                53.6289988223       10.1085519415       14.4315692621
H                54.6286045947        7.3499835926       13.6728560193
H                54.3763072460        8.7003663441       12.5088354469
N                51.1025881994       11.9213398914       15.0550181212
C                51.4409267315       13.1695778527       14.3769881805
C                51.0300558689       13.1221212529       12.8596336255
O                50.5953562683       14.1334764220       12.3109257237
C                52.8427891058       13.7561294138       14.6135248297
C                53.6803775312       13.3996052549       13.4271136525
C                53.5207330045       13.2630647118       15.8590061570
C                55.1304818564       13.5984999773       13.7696612591
H                51.8095936705       11.3604610818       15.5153379317
H                50.7132119780       13.9016238495       14.7804278112
H                52.7324962034       14.8456290684       14.6685935475
H                53.5495336836       12.3439558269       13.1704742981
H                53.4141675918       13.9899254729       12.5462319148
H                54.3681055708       13.8895647341       16.1120315508
H                52.8348775746       13.3068061706       16.7145608840
H                53.8539830968       12.2356738780       15.7687626162
H                55.7304079783       13.4171476212       12.8763349995
H                55.3276286336       14.6096302735       14.1238134140
H                55.4874227817       12.8788495109       14.4955319441
N                47.2631631552       14.1099934665       12.9892558911
C                47.3174614514       15.5467444169       12.9653171085
C                47.6935865893       16.1454742442       11.6080236050
O                47.0106340377       17.0462584430       11.1215715318
C                48.3481255146       16.0335219456       13.9611769405
C                48.8232411711       17.4232941067       13.6330096285
C                48.0199629575       18.5212267558       13.9083061212
C                50.0976862449       17.6472430555       13.1321669013
C                48.5024653771       19.8158387782       13.8105086109
C                50.5953569962       18.9376607918       13.0697671432
C                49.8203709670       20.0197893440       13.4511279816
H                47.8787962466       13.6339032249       13.6377375868
H                46.3200031663       15.9515517978       13.1955124724
H                47.9393481659       16.0092074622       14.9724338252
H                49.2065847879       15.3606905580       13.9143749623
H                47.0083927748       18.3504398187       14.2523741926
H                50.7233950054       16.8075321347       12.8644378276
H                47.8660887287       20.6481494817       14.0615357483
H                51.6075641682       19.0994939152       12.7378976047
H                50.2341241172       21.0140379555       13.4263337057
N                66.1143333323       27.3181748632       10.7565525865
C                65.8433623862       25.8923772068       10.6717886398
C                65.9381007056       25.5483447875        9.1307672241
O                66.6306458142       26.2713949777        8.4363177400
H                66.5685673101       27.5783367977        9.8714231176
H                66.6502466066       25.3729883136       11.1870605352
H                64.8631798951       25.7028749937       11.0977042885
N                65.2680184413       24.4893505762        8.6179511902
C                65.1720830404       24.2122857409        7.1663620103
C                63.9352941299       23.3585065384        6.9031856091
O                63.7765329900       22.2365996660        7.3558976329
C                66.4620377834       23.5064407113        6.6259443806
C                66.5195392744       23.5907450316        5.0885356992
C                66.5959785400       22.0411859248        7.1167104198
C                67.9540058475       23.5746690358        4.5487362711
H                64.7553982470       23.8216941729        9.1765452017
H                65.0979894347       25.1761604489        6.6659789376
H                67.2912177762       24.1081474626        7.0141419261
H                65.9513034960       22.7706206636        4.6431277870
H                66.0497571408       24.5033354158        4.7495547731
H                67.4444345163       21.5844019605        6.6143246948
H                66.6787191034       22.0070139853        8.1970428199
H                65.7224646742       21.4686982842        6.8244955960
H                67.9322497878       23.7398932111        3.4748910615
H                68.5498876129       24.3595524266        5.0056637869
H                68.4313669624       22.6125782473        4.7222816170
N                62.9608752443       23.9626166922        6.2219453464
C                61.9086603005       23.0938031418        5.7791968139
C                62.1698225032       22.7590566947        4.3161336775
O                63.2734420736       22.8845321287        3.8257255227
C                60.5216488047       23.6726342478        6.1083068226
C                60.5503883149       24.5650970015        7.3256790040
C                60.9157267892       23.7766417161        8.5687560385
C                61.4447942425       24.7927269491        9.5686077707
N                61.8037720311       24.2575705952       10.9330969647
H                63.1278110600       24.7971774562        5.6803728673
H                62.0404372238       22.1449340684        6.3190781955
H                60.1384228724       24.2452896241        5.2582568409
H                59.8355537531       22.8426969044        6.2868025996
H                61.2598946407       25.3745922795        7.1645898548
H                59.5653787604       25.0178846631        7.4428794741
H                60.0386270999       23.2558000035        8.9536594483
H                61.6750875150       23.0287419554        8.3448178530
H                62.3256797612       25.2901345101        9.1569512675
H                60.6885367495       25.5674078195        9.7172245758
H                62.0710440957       25.0536126975       11.5305803566
H                60.9757473170       23.7915351371       11.3457983833
H                62.5525646394       23.5540433840       10.8599295443
H                54.1852770002       16.4096502540        6.4374045584
H                58.8754853387       16.0666889860        6.3653664574
H                58.5855116462       19.3062715840        5.7540865734
H                62.0411909822       10.3664836230       20.9239227199
H                53.9170925570        9.2285177244       16.3350765831
H                51.6857021796        7.8638890227       14.3183009512
H                50.5123624244       12.0877005682       15.7137727490
H                51.1224574546       12.2709196594       12.3429927501
H                46.4317602899       13.8443908166       13.2088566834
H                48.4946844093       15.8047461003       11.1159396542
H                65.3408083964       27.7649903528       10.8661659608
H                61.4239287362       22.4281797351        3.7380654065
