 416 
 
N               -39.2434485401       61.6317452731       20.7928002743
C               -40.6361452018       61.9370706470       20.9406399676
C               -41.4070236871       60.8158116705       20.2984273926
O               -42.2671810409       60.1139706467       20.8521531675
C               -41.0621408211       63.1881738223       20.2075212875
C               -41.1105283143       64.4357459848       21.0784152652
C               -42.3716817718       65.2177451605       20.7648877204
C               -40.9947201177       64.1823255954       22.5625430422
H               -38.5967556244       62.2815412098       20.3805395395
H               -40.8861468570       61.9335307988       22.0029340004
H               -40.3954408532       63.3337357933       19.3565542378
H               -42.0675406266       63.0175128040       19.8099466934
H               -40.2475367240       65.0786244318       20.8179664226
H               -42.5043091028       66.0212746623       21.4898640464
H               -42.2925311499       65.6524318133       19.7742417892
H               -43.2378316336       64.5728538834       20.7905027020
H               -41.0763845312       65.1303002157       23.1087716472
H               -41.7751067857       63.5286303444       22.9253919345
H               -40.0305373498       63.7504972088       22.8160298902
N               -44.9089646089       60.2132635226       21.1540525103
C               -45.1873168094       61.4890805074       21.7671450448
C               -45.4229595887       62.5912916484       20.7602810164
O               -44.6554486358       62.8119398786       19.8332087636
C               -44.0448645905       61.9286618921       22.6602426482
C               -43.8882907889       60.9828522167       23.8317453050
C               -44.3516844681       63.3364353980       23.1252617244
C               -42.5160411433       60.9736859163       24.4163690284
H               -43.9612476631       59.9940763030       20.9223023591
H               -46.1091467651       61.3408786873       22.3542521331
H               -43.1440664095       61.9152663526       22.0489269588
H               -44.6177764331       61.2755780661       24.6085197952
H               -44.1493627658       59.9674708633       23.5257516861
H               -43.5466058564       63.7011755333       23.7631932389
H               -44.4365695652       64.0467761970       22.3073341589
H               -45.2718606313       63.3528063130       23.6878330922
H               -42.4711762537       60.3482760397       25.3089716758
H               -41.7869284922       60.6026919358       23.7042035340
H               -42.2049300069       61.9841951667       24.7256360273
N               -46.5119147882       63.3185450195       21.0506637871
C               -46.9146083390       64.5329003738       20.3808055944
C               -46.1273791685       65.7535922063       20.8850627062
O               -46.3027863497       66.1899461840       22.0167898670
C               -48.3950755460       64.7471815453       20.6568617120
C               -48.9593422508       66.0825260493       20.0476249135
O               -48.1474909861       66.8621862384       19.4779619810
O               -50.1892442065       66.2671289966       20.1970862091
H               -46.9970449394       63.1537650652       21.9105482894
H               -46.7515897851       64.4100896171       19.2954046074
H               -49.0017859036       63.9275638536       20.2511284592
H               -48.5760069700       64.8248870572       21.7258579054
N               -45.2083746794       66.3313853672       20.1043860699
C               -44.6373483154       67.5605421886       20.5792467902
C               -45.6476792643       68.6311287522       21.0285364558
O               -45.4478848940       69.1419599764       22.1135742320
C               -43.7606440021       68.0705868753       19.4384347845
C               -44.2778946007       67.3477127978       18.2085199521
C               -44.8495624828       66.0402516703       18.7296345846
H               -44.0584059513       67.3638835197       21.4880398137
H               -43.8457125000       69.1522136580       19.3193252082
H               -42.7133616414       67.8334808717       19.6229294872
H               -45.0770281394       67.9299343796       17.7396373117
H               -43.5008406317       67.1916001871       17.4563545615
H               -45.7433750774       65.7477966464       18.1453200516
H               -44.1459541692       65.2061356264       18.6870856113
N               -46.5892876271       69.0542925867       20.1540207915
C               -47.3057191130       70.3370381984       20.2552143759
C               -47.4574385384       70.7422572726       21.7317376708
O               -46.9946779744       71.7803266259       22.1721936484
C               -48.6765205976       70.3706427654       19.5391118542
C               -49.1540422408       71.7444094344       18.9951922543
O               -48.4443338213       72.5369192060       18.3832173895
N               -50.4732539621       71.9890203412       19.1845675133
H               -46.9316732194       68.3910057066       19.4729545013
H               -46.6708621593       71.1068705174       19.7944124932
H               -48.6080972598       69.7224955045       18.6691057682
H               -49.4484946542       69.9484557528       20.1965519558
H               -50.8504956422       72.8182678336       18.7555731201
H               -51.0920820826       71.3190454635       19.5912355382
N               -48.2163413218       69.8954175203       22.4561727405
C               -48.4400269036       70.0765828069       23.8853719738
C               -47.2246312270       69.7289277584       24.7796780455
O               -46.9470709941       70.4515091224       25.7377861187
C               -49.7163352429       69.3459181938       24.3799063321
C               -49.7936216166       67.8545449493       24.0415425367
C               -49.9700679725       66.8860313754       25.2885044812
O               -50.0206439762       67.3868874292       26.4350458907
O               -50.0154863686       65.6658292864       25.0130150729
H               -48.4618460915       68.9971233576       22.0646759767
H               -48.5835688186       71.1492320213       24.0363310714
H               -49.7407602881       69.4227942825       25.4657423113
H               -50.5800881771       69.8544173005       23.9711186315
H               -50.6219792283       67.6296491668       23.3526183183
H               -48.8900704240       67.4854724348       23.5367631585
N               -46.5149191798       68.6269474827       24.5363774091
C               -45.5454839107       68.2098146750       25.5190657085
C               -44.5573920227       69.3464939691       25.8174901936
O               -44.1066320035       69.5605102748       26.9447556651
C               -44.9174379048       66.8727796622       25.1192535507
C               -45.7200690719       65.6832901615       25.6962286934
C               -46.7635264181       65.1341862997       24.7321527685
C               -44.7789233182       64.5846967676       26.1921892120
H               -46.6846535411       68.0189460521       23.7451320056
H               -46.0811817688       68.0812179783       26.4780063562
H               -44.8618177459       66.8128072008       24.0429475289
H               -43.8959264894       66.8444031449       25.5270377741
H               -46.2581261816       66.0497119552       26.5903456339
H               -47.0092991337       64.1112715023       25.0040276384
H               -47.6905308413       65.7106298196       24.8040564535
H               -46.4316351189       65.1856648232       23.7177492626
H               -45.3475902354       63.7382272111       26.5525568156
H               -44.1032062241       64.2708376625       25.4201225394
H               -44.1761320926       64.9680633736       27.0229406684
N               -44.2427425549       70.0885924545       24.7701383957
C               -43.4274033463       71.2821155357       24.8923835128
C               -43.6986223679       72.0074453447       26.2364133517
O               -42.8367784435       72.2082528087       27.0671929639
C               -43.6637765441       72.1729651758       23.6498816892
C               -43.6860157865       71.4140620297       22.2859420901
C               -43.5458287397       72.3851042064       21.0980995179
C               -42.6256872615       70.3178306089       22.1500475422
H               -44.6839853476       69.9051356229       23.8739984734
H               -42.3684908342       70.9734975580       24.9242953088
H               -44.6205340822       72.6738681332       23.7396483903
H               -42.8792660981       72.9297088458       23.6314524074
H               -44.6639113623       70.9618425813       22.1923565210
H               -43.6927709628       71.8353899098       20.1786329309
H               -44.2965147773       73.1580621206       21.1712000159
H               -42.5546641928       72.8322504413       21.0828186076
H               -42.6761443613       69.8800871415       21.1678176386
H               -41.6240562521       70.7412913229       22.2786287422
H               -42.7525591032       69.5267366583       22.8864342797
N               -44.9634406698       72.4170046483       26.3890187952
C               -45.3766682337       73.3163736654       27.4393278665
C               -45.1122922522       72.7404580587       28.8164990853
O               -44.9442247650       73.4466472420       29.7999750445
C               -46.8991315228       73.5700921444       27.4633439295
C               -47.5274843478       73.8610302459       26.1049779296
O               -46.8756002534       73.9712617987       25.0738710163
N               -48.8635999961       74.0062104512       26.1245511673
H               -45.6500816585       72.2186375697       25.6589072556
H               -44.8381067027       74.2704567853       27.3265955221
H               -47.3979494927       72.6840031159       27.8518218978
H               -47.0930449243       74.4129106768       28.1215696769
H               -49.3394579455       74.1085223305       25.2544197889
H               -49.4025794032       73.8002310760       26.9592162427
N               -45.2345213144       71.4265987768       28.8840445777
C               -45.3856379354       70.7622024571       30.1576909739
C               -44.3142561161       71.2420177140       31.1353468074
O               -44.5837611304       71.6564509364       32.2650024837
C               -45.2893851340       69.2449079008       29.9571637177
O               -44.0216452609       68.8420440710       29.5433274518
H               -45.3399859699       70.8852207167       28.0304739247
H               -46.3693267877       71.0031882182       30.5933801715
H               -45.4967973083       68.7552785100       30.9145041079
H               -46.0737639889       68.9388825116       29.2355489610
H               -43.9358918140       68.9969300245       28.5844430651
N               -43.0844887228       71.1383037664       30.6444551498
C               -41.8755526882       71.3690339396       31.4066594886
C               -41.4743351652       72.8497954378       31.5229389469
O               -40.4974551603       73.1961090385       32.1959868113
C               -40.7596690733       70.5778272233       30.7303286541
C               -40.9398076428       69.0919994309       31.0008312449
S               -40.1118448517       67.9990315170       29.7789934092
C               -38.8809899207       69.0609084956       28.9855113534
H               -42.9715089275       70.7829804983       29.7063278139
H               -42.0251859748       71.0303948604       32.4438825850
H               -40.8214821475       70.7855500296       29.6616583705
H               -39.7971898361       70.9363810797       31.0947407820
H               -40.5576275234       68.8385388381       31.9884428994
H               -41.9910969680       68.8214280892       30.9375131280
H               -38.2090470085       68.3974413448       28.4548702971
H               -39.3578174386       69.7333174646       28.2668440317
H               -38.3282405284       69.6303652801       29.7203501648
N               -42.2465885462       73.6631260261       30.7925501949
C               -42.2516131444       75.1049446711       30.8816665920
C               -43.0322619380       75.6115811332       32.1241122592
O               -42.7130045979       76.6631763613       32.6665055469
C               -42.8467412658       75.6797313310       29.5984581634
H               -43.0569787386       73.2739696865       30.3261020686
H               -41.2201820677       75.4425626225       31.0097953103
H               -42.7067244914       76.7586789089       29.5758280608
H               -42.3445142752       75.2405617719       28.7375265909
H               -43.9053233708       75.4500269116       29.5448262322
N               -44.0545899777       74.8376213801       32.5382138539
C               -44.9065400559       75.1738901594       33.6667636143
C               -44.5760947800       74.4142864778       34.9757304130
O               -44.6638802509       75.0169365341       36.0436563390
C               -46.3735656423       74.9828997342       33.2904960092
H               -44.2928298377       74.0034256628       32.0078039958
H               -44.7051876564       76.2282749166       33.8837115660
H               -46.9987227542       75.2803208902       34.1162258308
H               -46.6034654076       75.5897131559       32.4138953597
H               -46.5525680607       73.9353319624       33.0482264532
N               -44.2550576299       73.1277521382       34.9149313730
C               -43.7771734219       72.3964048655       36.0727099370
C               -42.3600003520       71.8214373422       35.7946573165
O               -41.5377690818       71.9698902660       36.7294512178
C               -44.6876494385       71.2296129929       36.4406013477
O               -42.1609092757       71.2204961322       34.7323633663
H               -44.1739525311       72.6416462405       34.0117529063
H               -43.7005715037       73.1072309129       36.8878770860
H               -44.2849487544       70.7302931848       37.3107836099
H               -45.6866305121       71.5880181896       36.6381887804
H               -44.7140073713       70.5240264490       35.6007328188
N               -46.5248468097       58.3696946824       31.6206892889
C               -46.3864176605       59.5516410386       30.8283801082
C               -45.6472561558       60.6400450282       31.6110715601
O               -44.5215939554       61.0136960559       31.2832783430
C               -47.7554186498       60.0104368459       30.3690553003
C               -47.7162530141       61.3793196721       29.6994932803
C               -48.7108595933       61.5480982641       28.5466328382
N               -48.1958673963       60.9418138271       27.3067462400
C               -48.3342299842       61.3722849882       26.0289340454
N               -48.8261537025       62.5823604566       25.7649637797
N               -47.9203491360       60.6126737209       25.0235884115
H               -47.4685236209       57.9907549371       31.7187011369
H               -45.7440779816       59.3128890377       29.9438983875
H               -48.1400267493       59.2355533293       29.6683219454
H               -48.4248829391       60.0236357505       31.2122762932
H               -47.9108150988       62.1465453701       30.4170399715
H               -46.7098706856       61.5540126840       29.2815285824
H               -49.6614406720       61.0644077106       28.7927843464
H               -48.8796518185       62.5989978111       28.3578443383
H               -47.8203612289       60.0051659078       27.4151182639
H               -49.1772572326       63.2060619576       26.4758605444
H               -49.0019599974       62.8857936091       24.8247441463
H               -47.5334598490       59.6854707158       25.1823351298
H               -48.0566347540       60.8836503375       24.0710260328
N               -41.8104381721       63.1658900119       31.2193121689
C               -41.5891762282       64.5944434042       31.3947688795
C               -40.3853580307       64.8499784610       32.2902423741
O               -39.4104830685       65.4682524278       31.8737537644
C               -42.8183267998       65.2940223752       32.0043492028
C               -43.7871374207       65.8572606199       30.9766720825
C               -43.9819957217       64.9266625664       29.7885312111
C               -45.1323837630       66.0865632698       31.6391915279
H               -42.7512221661       62.8029155607       31.2953151013
H               -41.3284014027       65.0444539246       30.4296342031
H               -43.3299652706       64.5794504022       32.6466817744
H               -42.4742294795       66.1144849004       32.6315293461
H               -43.4013667748       66.8127776283       30.5938163253
H               -44.7760471805       65.3253175205       29.1449549190
H               -43.0817648500       64.8632572731       29.1768602196
H               -44.2654377785       63.9293907378       30.0936366862
H               -45.8133496372       66.6135213952       30.9558001418
H               -45.5743147518       65.1220119836       31.8433502373
H               -45.0410854724       66.6621191242       32.5475104644
N               -36.9936415161       64.3490629450       30.7410442615
C               -36.7031788315       65.1814984093       29.5729288591
C               -36.3816539290       66.5840960127       30.1169853727
O               -35.3406191622       67.1209874000       29.8091232062
C               -37.9138577123       65.1720632845       28.6129638422
C               -38.1735537152       63.9704677313       27.6912507877
C               -38.2892196074       64.2084994713       26.3127177272
C               -38.4589274242       62.6578977805       28.1371303378
C               -38.6677839146       63.1997443243       25.4006437158
C               -38.8277060632       61.6414890641       27.2289539499
C               -38.9365925572       61.9040703612       25.8475848666
O               -39.2700439936       60.9493231903       24.9038933127
H               -37.9581111468       64.3777956650       31.0817260515
H               -35.8123102215       64.8022739934       29.0953153973
H               -38.8227668786       65.2962368022       29.2324093197
H               -37.8418830332       66.0373164653       27.9725308185
H               -38.1045497910       65.1766635332       25.9288608338
H               -38.3986687243       62.4197744880       29.1656613856
H               -38.7281076817       63.4144013839       24.3633234471
H               -39.0333270355       60.6591817091       27.5919160032
H               -39.5851689468       60.1506690625       25.3467607711
N               -37.2504643472       67.1141019549       30.9898163924
C               -36.9355203061       68.2720264380       31.8461876279
C               -35.4180477026       68.1465936460       32.0730839866
O               -34.6452910679       69.0368280808       31.7724743353
C               -37.8265319810       68.2518442093       33.1238677415
C               -38.1037958936       69.6140780848       33.7841149626
C               -39.2229662365       69.5499541224       34.8351810655
N               -38.7755199353       68.9831364769       36.1052072660
C               -39.4008567798       69.0554527325       37.3159812198
N               -38.7901348646       68.4505657891       38.3663389038
N               -40.5418157916       69.6821509712       37.5472706684
H               -38.1244831320       66.6187455590       31.2110426180
H               -37.1013942669       69.2001782580       31.2959826553
H               -38.7819158016       67.8110341867       32.8206177416
H               -37.3844416405       67.5672750059       33.8452915512
H               -37.2017048983       70.0042355010       34.2390255102
H               -38.4405984396       70.3214257859       33.0285871948
H               -39.6226414979       70.5498839455       35.0235458100
H               -40.0632727492       68.9479245588       34.4524602823
H               -38.0170289906       68.3256149026       36.0454397083
H               -38.1539110392       67.6654126052       38.1520209347
H               -39.2661118363       68.4264596262       39.2183034167
H               -40.8429939901       70.4963823656       36.9635239677
H               -40.8168664015       69.7659612059       38.4956500026
N               -32.9870051728       67.0646026254       28.5652039173
C               -32.7974074771       68.3786763268       28.0223456748
C               -31.8353602170       69.2538861644       28.8075083624
O               -30.8377196443       69.7198189467       28.2511234171
C               -34.0541460210       69.2370253704       27.9697597677
C               -35.0194093255       68.9945609428       26.8028036960
C               -35.8061045266       70.2984432561       26.5161277408
C               -34.3113885446       68.5218965990       25.5495356552
H               -33.8567182748       66.9121053729       29.0703802559
H               -32.3343589159       68.2849296510       27.0282755235
H               -34.5879623843       69.1408200998       28.9073993292
H               -33.7127928027       70.2861773338       27.8986949814
H               -35.7312568142       68.2203855956       27.0904110381
H               -36.5106112978       70.1445232896       25.6996095399
H               -36.3678830646       70.5886638901       27.4046485223
H               -35.1415258364       71.1043934198       26.2562578275
H               -35.0109642188       68.4661565812       24.7102191234
H               -33.5259621685       69.2368090676       25.2701453606
H               -33.8597737751       67.5566617092       25.6806663722
N               -35.5295127056       75.3807271695       27.7786971011
C               -36.8369270228       75.0575641133       27.2271869259
C               -37.0813802981       75.7122414955       25.8477505651
O               -36.8971135011       75.1389177823       24.7843473913
C               -37.8224063464       75.4896061605       28.3407609597
C               -37.0137222535       76.4209772121       29.2460924319
C               -35.6272982973       75.8088509094       29.1724884211
H               -36.8784602260       73.9818586723       27.0304867749
H               -38.7263620889       75.9740183922       27.9477216789
H               -38.1218182301       74.6163777134       28.9041329531
H               -36.9688629645       77.4415081590       28.8321883346
H               -37.3968141655       76.4725464176       30.2508291961
H               -34.8508868139       76.5193978978       29.4336297842
H               -35.5432733544       74.9327655518       29.8049313432
N               -37.6178795528       76.9408206204       25.9482710306
C               -38.6386978741       77.5004556890       25.0642885480
C               -38.2544818691       77.2290282064       23.5973226756
O               -38.8488408559       76.4823633424       22.8332313503
C               -38.8183617633       78.9978926607       25.4133895582
C               -39.1397526613       79.2129546136       26.9104354120
O               -39.5754766553       78.3425124338       27.6406353279
N               -38.9400034807       80.4642368014       27.3515734649
H               -37.5799775646       77.3783751504       26.8588623194
H               -39.5898220647       76.9810383196       25.2649529767
H               -37.9053513530       79.5467664856       25.1885946584
H               -39.6383582706       79.4045933278       24.8311523487
H               -39.0701968673       80.6269276564       28.3319934815
H               -38.4342580443       81.1417206353       26.8107344555
N               -37.8117813111       73.7558739279       22.0597258691
C               -39.0612887968       73.1022545379       21.8455307069
C               -39.4902929998       73.4641854624       20.4229329257
O               -39.7752570039       72.6484916231       19.5596511857
C               -40.0435082830       73.5181086801       22.9291854385
C               -39.3809086500       73.6747419130       24.3090267971
C               -40.4476228337       73.8369380961       25.3958653760
C               -38.4513625779       72.5337695923       24.6854472048
H               -37.6839136905       74.3799914082       22.8501057309
H               -38.9105132240       72.0126285539       21.8645490739
H               -40.5090523201       74.4689212473       22.6705981370
H               -40.8360091459       72.7621403312       22.9909817133
H               -38.8206696926       74.6019018950       24.2919040303
H               -39.9838110567       74.1273091095       26.3345156489
H               -41.1572296167       74.6216142931       25.1165211062
H               -40.9986035909       72.9199932126       25.5535367034
H               -38.0975029954       72.6751216110       25.7020181586
H               -38.9964962219       71.5847169071       24.6526688333
H               -37.5894064718       72.4610297339       24.0397632687
N               -39.5276969506       74.7781562045       20.2065363629
C               -39.9537780529       75.2464011244       18.9130544476
C               -39.0685077017       74.6960587599       17.8069145255
O               -39.5292474677       74.3750284681       16.7239248576
C               -40.0108080593       76.7737518932       18.8691221439
C               -40.7932051059       77.2673856008       17.6596323120
O               -40.7863854519       76.7472161963       16.5452991192
N               -41.5487439759       78.3964154604       17.9279339104
H               -39.2385610316       75.4434511375       20.9164230845
H               -40.9536106646       74.8512021375       18.7038246633
H               -40.4760009572       77.1353522226       19.7834446099
H               -38.9925871732       77.1759428533       18.8105410983
H               -42.0445737965       78.7946823373       17.1348988691
H               -41.5134660065       78.8452478520       18.7700069030
N               -38.0866085503       72.0372461149       17.1399623622
C               -38.6676985384       70.8106865577       16.6937872935
C               -40.1977992323       70.8588400158       16.4931042813
O               -40.8462933515       69.8301642040       16.5535596439
C               -38.3139055435       69.6770922209       17.6436145850
C               -37.1805648872       68.8110931177       17.1358031823
S               -37.0185177062       67.2874670223       18.1102025328
C               -38.7496432560       66.7461608009       18.2578776233
H               -38.2208152504       72.2813109227       18.1014271046
H               -38.2624441182       70.6141801723       15.6767745618
H               -38.0714285227       70.0924302427       18.6176570988
H               -39.2164124068       69.0772491331       17.7273875488
H               -37.3451521410       68.5300049840       16.0893531360
H               -36.2204479431       69.3248172868       17.2112362468
H               -38.7076428905       65.7955664104       18.7763417758
H               -39.2996146307       67.4443992190       18.8769586776
H               -39.1929642880       66.6601293895       17.2753532575
N               -40.6974295501       72.0542591481       16.1850645984
C               -42.0870437399       72.3267774501       15.9064748029
C               -42.3126528796       72.9902633863       14.5343342944
O               -43.4484357653       73.2361219869       14.1433602244
C               -42.6915382537       73.2354562859       16.9707218104
H               -40.1257619562       72.8805202232       16.3396613604
H               -42.6065950180       71.3568120755       15.8885364338
H               -43.7543368343       73.3388087894       16.7908833967
H               -42.5110822576       72.8127033697       17.9539314285
H               -42.2213489742       74.2150424054       16.8992920346
H               -38.8825048710       61.4757305061       21.6023551274
H               -41.2430999651       60.5809175224       19.3403283620
H               -45.1703440313       59.5516215124       21.7053334259
H               -46.0321950468       57.7077399649       31.2613702211
H               -46.0787529139       61.0635592664       32.4075928955
H               -41.5389223605       62.9185109019       30.3976779803
H               -40.3818111501       64.5125219300       33.2315768042
H               -36.8226691509       63.4872872152       30.5458237662
H               -35.0402763271       67.3143833335       32.4789346778
H               -32.9760851208       66.4597988755       27.8988007535
H               -32.0118262425       69.4505429381       29.7719697951
H               -35.0608539302       74.6227620597       27.9045853234
H               -37.4578643592       77.6820182401       23.1970720386
H               -37.1651944543       73.1394935742       22.1692735583
H               -38.0857798517       74.5904905820       17.9589057515
H               -37.1950179774       72.0081657387       17.0207122803
H               -41.5301789672       73.2230133546       13.9567860032
