 422 
 
N               -21.9997941914       72.6585850672       16.0208262787
C               -23.3507836336       72.9395895708       15.6152702541
C               -23.9881334247       71.7481374940       14.9287849083
O               -25.1683441598       71.4725505421       15.1705464370
C               -23.4345561861       74.2170458005       14.7842559828
C               -24.7785202727       74.2964906471       14.0665883915
C               -23.2108813995       75.3908708273       15.7310703948
H               -21.2607692992       72.7901502531       15.3446913833
H               -23.9233318478       73.0826468293       16.5424285907
H               -22.6266130236       74.1868479926       14.0457550697
H               -24.8691590785       75.2477917344       13.5497682816
H               -24.8685461512       73.4960942480       13.3365243189
H               -25.5936667356       74.2020391404       14.7789585461
H               -23.1921399349       76.3276024651       15.1796519618
H               -24.0050311834       75.4370523330       16.4711626179
H               -22.2604210566       75.2768064870       16.2468998723
N               -23.2508374120       70.9843556071       14.1320002669
C               -23.8538297049       69.7237641629       13.7559656531
C               -24.2406592935       68.9843183064       15.0421502236
O               -25.2440243634       68.2832866846       15.0858964705
C               -23.0270815150       68.8722857354       12.7864432892
C               -23.9828638017       68.0924256608       11.8802383593
C               -23.2993031678       67.1859294149       10.7954605474
O               -22.6688281167       66.1978330449       11.2128111187
O               -23.4938897135       67.5137016616        9.6104911182
H               -22.2827341425       71.1826262789       13.9102282207
H               -24.8122418397       69.9554703832       13.2677886178
H               -22.4040717072       69.5360764752       12.1833217598
H               -22.3680773332       68.1916595060       13.3274677968
H               -24.6078328582       67.4451192485       12.4983563321
H               -24.6240043309       68.7904182221       11.3388425375
N               -23.4783550153       69.2057005140       16.1137951093
C               -23.8506743315       68.6778517026       17.4079214993
C               -25.1811912317       69.2007654897       17.9321265283
O               -25.9024664586       68.4504192045       18.5765306105
C               -22.8090809374       69.0113978249       18.4868068163
C               -21.8466214897       67.8493896615       18.7171328535
C               -22.6156481805       66.6572560979       19.3810580117
O               -22.5826338509       66.6081060265       20.6218434921
O               -23.2133962190       65.8561405838       18.6295710502
H               -22.5720696343       69.6504062062       16.0291227317
H               -23.9501664044       67.5845514571       17.3497828385
H               -22.2724857720       69.9150631106       18.1923079674
H               -23.3159212714       69.2304914885       19.4308823690
H               -21.4050406160       67.5364378794       17.7699133490
H               -21.0575177375       68.1609718373       19.4037985366
N               -25.4523682887       70.5243714188       17.8008858625
C               -26.7130067224       70.9386983792       18.3952636780
C               -27.8570715317       70.2685376411       17.6559934255
O               -28.7449340859       69.6155545883       18.2189366539
C               -26.8474780273       72.4604636715       18.4536133358
C               -27.3000082420       72.9029201995       19.8402379430
C               -27.1013325857       74.4065536930       20.0629734617
N               -27.4123407991       74.8850903461       21.3948193208
C               -28.8428336378       74.7963853032       21.7225547608
N               -29.5895481684       75.6368358878       20.8101343856
N               -28.9787405948       75.1355039417       23.1558968161
H               -25.2183214497       70.9800861504       16.9158344181
H               -26.7363931729       70.5338331692       19.4160133312
H               -25.8692441107       72.9023039374       18.2548583264
H               -27.5554606949       72.8208864403       17.7061105894
H               -28.3543252206       72.6579090624       20.0106765550
H               -26.7328658099       72.3639599314       20.6079566730
H               -26.0523150514       74.6588951431       19.8781562193
H               -27.7478935784       74.9673432990       19.3867552439
H               -26.9336841284       74.3367118730       22.1046185560
H               -30.5292052695       75.2677409201       20.6861795326
H               -29.7234516012       76.5854984812       21.1719175493
H               -29.1272690381       74.3042352922       23.7279497739
H               -29.7924123213       75.7280399966       23.3024016226
N               -27.7882110388       70.3429442526       16.3150881747
C               -28.8992943910       69.8494994439       15.5373389738
C               -28.9268684616       68.3159296703       15.4867931802
O               -29.9109849253       67.7278697379       15.0507471554
C               -28.8882323965       70.5050969209       14.1482006792
O               -28.5218327197       71.8555709858       14.3535332852
C               -30.2449044382       70.3723791148       13.4666116315
H               -27.1595892549       70.9957356996       15.8615947789
H               -29.8318769303       70.1376345145       16.0517977473
H               -28.1040510581       70.0130211300       13.5478152726
H               -28.7682753597       72.3622722977       13.5668497255
H               -30.1881233991       70.7219640306       12.4394174869
H               -30.5636412551       69.3351622970       13.4844485889
H               -30.9815014830       70.9650029066       14.0069043803
N               -27.8520018623       67.6711178366       15.9535982829
C               -27.8086265633       66.2221496540       15.9980252708
C               -28.5721551883       65.6940147619       17.2062681583
O               -28.9845716323       64.5368990522       17.2214933448
C               -26.3587091000       65.7160362232       16.0293851747
C               -26.2267291823       64.2004903379       15.8703044383
C               -26.5179987617       63.7235647473       14.4328343180
N               -25.6572774556       62.6237101874       14.0259916144
C               -24.4751770852       62.7449304176       13.4200949687
N               -23.8968066162       63.9337735459       13.2770391930
N               -23.8411802236       61.6501227471       12.9993025454
H               -26.9827059965       68.1622918169       16.1120061269
H               -28.3286243557       65.8356772760       15.1111517300
H               -25.8207750956       66.2269375698       15.2320206457
H               -25.9050049019       66.0420924311       16.9668457135
H               -25.1995336544       63.9372250389       16.1220940963
H               -26.9142802450       63.7022117020       16.5519017444
H               -27.5477765955       63.3765893048       14.3530799447
H               -26.3971781991       64.5511012284       13.7298437805
H               -25.9976357714       61.6926373117       14.2210896929
H               -24.3495456592       64.7698558520       13.6062396532
H               -23.1222689484       64.0918880770       12.6499862796
H               -24.2850239127       60.7462531167       13.0194993494
H               -22.9667394115       61.7377389828       12.5081379293
N               -28.7285943970       66.5165805830       18.2560781151
C               -29.6580690674       66.1052462089       19.2785999162
C               -31.0866225456       66.4275243544       18.8549365099
O               -32.0051222872       65.6250715461       19.1120966718
C               -29.2312999704       66.5530628737       20.6782370903
C               -27.7545226888       66.2342050778       20.9727429075
C               -27.2508397791       64.8135670853       20.6264966975
C               -25.8937641999       64.9476743550       19.9332349004
N               -25.3117356672       63.6740073053       19.4227790129
H               -28.4681367669       67.4919779312       18.2141426011
H               -29.6395849700       65.0048638069       19.2788254113
H               -29.3789985517       67.6345403070       20.7914019681
H               -29.8915712868       66.0857845660       21.4140515842
H               -27.1639819950       66.9662332318       20.4158892350
H               -27.5912671484       66.4498453013       22.0329546588
H               -27.1796772858       64.2315032574       21.5446052856
H               -27.9531152350       64.3149298107       19.9609116939
H               -26.0039590066       65.6332177229       19.0925642470
H               -25.1781449835       65.4033453526       20.6187213105
H               -24.4019712478       63.9582238092       19.0020465002
H               -25.1594061467       63.0123199272       20.1989860949
H               -25.9322119836       63.2397471054       18.7222206008
N               -31.2809654345       67.3981652619       17.9037682907
C               -32.6423075612       67.5478589287       17.4209858450
C               -33.0822268609       66.2984275520       16.6592569227
O               -34.2698513160       66.0997695300       16.4394482915
C               -32.7974809433       68.7711734705       16.5332763304
C               -33.0882851824       70.0458789750       17.3335981877
C               -32.2633183113       70.1744296892       18.6194389959
C               -32.8636063227       71.2757025354       16.4590937065
H               -30.7198355731       68.2352507400       17.9693950424
H               -33.3552173891       67.6248170206       18.2625170230
H               -31.8835386844       68.8841541718       15.9472012191
H               -33.6331166835       68.6049823235       15.8524764051
H               -34.1407929698       70.0431331901       17.6489461451
H               -32.5389263115       71.0960427379       19.1382110270
H               -32.4571998758       69.3662186733       19.3256528638
H               -31.1912361590       70.2199688489       18.4270720561
H               -33.2259346441       72.1575214185       16.9835693496
H               -31.7999522039       71.4059526655       16.2682959306
H               -33.4101524734       71.1874480197       15.5255312032
N               -32.1157366205       65.4858707179       16.2314956421
C               -32.3812235557       64.1470934379       15.7536120583
C               -32.6192648129       63.1442356661       16.8919934250
O               -33.5914921666       62.4016207685       16.8556594468
C               -31.2400291643       63.6621174761       14.8619538573
C               -31.5765402186       62.3019426508       14.2359453520
C               -32.6947840034       62.4018638526       13.2051455622
O               -33.8285876187       62.7737865726       13.4662938833
N               -32.3320692663       62.0760880358       11.9530114462
H               -31.1642722873       65.7451441481       16.4465668264
H               -33.3210772382       64.1795062245       15.1899435108
H               -31.0765579871       64.4133013188       14.0873263820
H               -30.3408060704       63.5855440924       15.4764072093
H               -30.6805169245       61.8876265827       13.7787934392
H               -31.9178644432       61.6233778958       15.0191249213
H               -31.4325804148       61.6702956147       11.7606848708
H               -33.0464470307       62.0404614467       11.2433840303
N               -31.6741319892       63.0375128047       17.8499178039
C               -31.8910502929       62.1262363381       18.9661186332
C               -33.1433175453       62.4694282775       19.8066366193
O               -33.5457553738       61.7010307868       20.6703617537
C               -30.5970525074       61.8329613282       19.7634446145
C               -30.4014370935       62.5664021610       21.0987722073
C               -29.3046854754       61.9443861822       21.9609419884
O               -28.8398715648       60.8378268672       21.7655824351
N               -28.8384662498       62.7202232527       22.9620357612
H               -30.9498489355       63.7392826961       17.9242027289
H               -32.2025885386       61.1796585092       18.4953440430
H               -30.5836264317       60.7686743491       20.0007966329
H               -29.7578528011       62.0482711070       19.1029207346
H               -30.1950995311       63.6290612571       20.9688467532
H               -31.3207042940       62.4974747958       21.6890433559
H               -29.2552601694       63.5939389946       23.2388850720
H               -28.2161233374       62.3078402597       23.6397570722
N               -33.8308335223       63.5507498833       19.3911022459
C               -35.0648981571       63.9675456062       19.9972901452
C               -36.2355554520       63.8779387209       19.0193937551
O               -37.2829369201       63.3844222946       19.4661581659
C               -34.9457550724       65.3462858577       20.6548483005
C               -34.1312528913       65.3040780386       21.9249216333
C               -34.7172561351       65.6161670700       23.1452910556
C               -32.7735915044       64.9940422660       21.9361676828
C               -33.9781076721       65.6924358600       24.3116173276
C               -32.0143504322       65.0976699581       23.0909111704
C               -32.5961684532       65.5161081354       24.2816434532
O               -31.8876668307       65.7706185700       25.4137637122
H               -33.3199827698       64.2831920714       18.9165618706
H               -35.2971362342       63.2379257766       20.7883703728
H               -34.4773452953       66.0353799328       19.9457592642
H               -35.9409837042       65.7316730419       20.8810909298
H               -35.7745857207       65.8363298193       23.1953997679
H               -32.2810670017       64.7467091876       21.0129041894
H               -34.4464576041       65.9353640884       25.2522652888
H               -30.9454546374       64.9368014814       23.0861573665
H               -30.9087309529       65.6938699654       25.2476879821
N               -36.1125724757       64.1195075912       17.6931484776
C               -37.2755211097       63.7039069180       16.9287101907
C               -37.5024845206       62.2168682885       17.2604102183
O               -38.6260281496       61.7513755547       17.4861993521
C               -37.0428403388       63.9866887896       15.4475681685
C               -38.3432947472       64.0143808026       14.6426114069
C               -38.0452857789       64.1972633499       13.1511312982
N               -39.2701468720       64.3649420295       12.3779177485
C               -39.3471151388       64.3878335429       11.0460899446
N               -38.2732733443       64.1603111194       10.2979315491
N               -40.5125365750       64.6464601585       10.4532648641
H               -35.5668394716       64.9039876771       17.3471768771
H               -38.1830305585       64.2234311653       17.2742038006
H               -36.5542048748       64.9629244940       15.3941199896
H               -36.3501855654       63.2397759274       15.0556442073
H               -38.8881435789       63.0849222602       14.8201724885
H               -38.9616914056       64.8364923419       15.0134975406
H               -37.4055870478       65.0802022214       13.0411791542
H               -37.5011782235       63.3114939603       12.8127527872
H               -40.0944126850       64.5828380699       12.9178043664
H               -37.3820970185       63.9723818504       10.7271311757
H               -38.3391055900       64.1399901023        9.2925749784
H               -41.3491789383       64.7825170035       10.9956159875
H               -40.5971878049       64.5896291481        9.4508095323
N               -36.3807381059       61.4769332342       17.1990156737
C               -36.3084337288       60.0467936518       17.3962538700
C               -36.3395028797       59.6114298787       18.8657451992
O               -35.8612863947       58.5394431218       19.2316026163
C               -35.0928611688       59.4140522684       16.7146438657
C               -35.2507463726       59.1101141583       15.2294943339
C               -34.4460916628       57.8274297753       14.8082405390
O               -33.6512879285       57.9593200015       13.8576014254
O               -34.6853442356       56.7745726154       15.4293349022
H               -35.4960590702       61.9630491950       17.0897911098
H               -37.2380834952       59.6201973549       16.9814367310
H               -34.2351964997       60.0687274834       16.8813075750
H               -34.9072161587       58.4716002383       17.2383142897
H               -36.2992733588       58.8948552759       15.0097070210
H               -34.9236217913       59.9526049144       14.6185821315
N               -37.0679264504       60.3976759974       19.6789412363
C               -37.4981213350       59.8937966224       20.9567981785
C               -38.8588083409       60.4166253165       21.3421208103
O               -39.7045720566       59.6261853409       21.8197929693
C               -36.4473353108       60.0511240433       22.0629589317
C               -36.9364269231       59.4303316593       23.3597943115
S               -37.4193563933       57.6764013245       23.1956955849
C               -37.4742167777       57.2502629808       24.9710558029
H               -37.2878486851       61.3510217175       19.4324924485
H               -37.6199322607       58.8050923264       20.8306031483
H               -35.5293760932       59.5690650013       21.7191091357
H               -36.2407847860       61.1126330353       22.2317542380
H               -36.1506755778       59.4709836025       24.1161085649
H               -37.8129022744       59.9726489797       23.7146035444
H               -37.8106139436       56.2218833773       25.0215327986
H               -36.4799606560       57.3613580388       25.3915731213
H               -38.1895827179       57.8920936644       25.4777473354
N               -39.2292611789       61.6995358051       21.0516158813
C               -40.6642692335       61.9226993497       21.0371768553
C               -41.3689014040       60.7395355313       20.4062904616
O               -42.2422919777       60.0562313012       20.9562530868
C               -41.0869211902       63.1422643115       20.2366842409
C               -40.7979548138       64.4768638374       20.9126120821
C               -41.5630916123       65.5625196233       20.1679287583
C               -41.2247783982       64.5006128586       22.3742287798
H               -38.6374255528       62.2940577984       20.4899747187
H               -41.0087481789       61.9858363531       22.0779883043
H               -40.5799570971       63.1217945220       19.2688927665
H               -42.1648067639       63.0631738611       20.0608805435
H               -39.7188396352       64.6763763298       20.8603830219
H               -41.3026584558       66.5455806620       20.5582902123
H               -41.3487632158       65.5417570431       19.1028776159
H               -42.6272520037       65.4113485084       20.3237175998
H               -41.1432819928       65.5093380904       22.7790473265
H               -42.2601618371       64.1878136923       22.4637476299
H               -40.6110151876       63.8509676566       22.9936623174
N               -33.1173536794       65.2045725851       30.6896303075
C               -32.1900812026       65.0521304035       29.5840790957
C               -32.0196615845       66.3581774845       28.7961724435
O               -30.9032204369       66.6353311801       28.3456572310
C               -32.5176971166       63.8514839959       28.6924032185
C               -31.4801466788       63.5934068368       27.5904260368
S               -29.9661577515       62.6941089780       28.0560035059
C               -29.1824045679       62.4371436384       26.4308428898
H               -33.9733961086       64.6509094803       30.7082585928
H               -31.1905130505       64.8774960964       30.0169438206
H               -32.6243942033       62.9692817080       29.3276226787
H               -33.4767498654       64.0320279597       28.1942200790
H               -31.9485446594       63.0012380500       26.7969164959
H               -31.1564385648       64.5387299593       27.1561009115
H               -28.1333391046       62.2515405166       26.6230852804
H               -29.6599944773       61.6050289130       25.9213625050
H               -29.2941134214       63.3519466492       25.8547704516
N               -33.0613075923       67.1922739134       28.6493303072
C               -32.8455134580       68.4854305906       28.0348668902
C               -31.8503066599       69.3585297233       28.7882054232
O               -30.8477509366       69.8036158639       28.2286765344
C               -34.0889834505       69.3611882277       27.9526836149
C               -35.0627190807       69.0565146461       26.8168427860
C               -35.9783479138       70.2653729659       26.6227320769
C               -34.3446299965       68.7368191907       25.5150391880
H               -33.9713976021       67.0103152807       29.0630470071
H               -32.4006224097       68.3227752206       27.0432552604
H               -34.6248361344       69.2920782507       28.9032089907
H               -33.7436552273       70.3949085073       27.8368402820
H               -35.6714894009       68.1861936817       27.1025157169
H               -36.7244870505       70.0638849405       25.8565222157
H               -36.4911392229       70.5090785141       27.5518769533
H               -35.3989664917       71.1324504258       26.3129776328
H               -35.0588907544       68.5653299636       24.7104708402
H               -33.6998208984       69.5628862961       25.2328934023
H               -33.7330904938       67.8463281742       25.6001149149
N               -28.3087979442       67.7475386928       28.6425119943
C               -27.7525729552       68.0369745020       27.3414200177
C               -27.6220160451       69.5645929797       27.1238206566
O               -27.1155076989       70.0223345571       26.1049071354
C               -28.5764543297       67.4288398986       26.2039065269
C               -28.4053000391       65.9165560274       25.8646386506
O               -27.4376496305       65.2943561370       26.3050728572
O               -29.2735991562       65.4437424689       25.0726986852
H               -29.2946085317       67.5217928332       28.6531416751
H               -26.7324932371       67.6274422047       27.2970919334
H               -29.6419858217       67.5951968874       26.3849469387
H               -28.3101183425       67.9396019759       25.2738251326
N               -29.4916806773       72.5552951188       26.7099581670
C               -30.7641097351       72.9498067181       26.1315447724
C               -31.8039104769       73.5026081026       27.1252607814
O               -32.3455293087       72.8234336343       27.9927050704
C               -31.3524624348       71.7330188686       25.4033651008
C               -30.4487522306       71.2940117524       24.2362901066
C               -32.7738150676       72.0337018511       24.9521535501
C               -30.0556357479       69.8350674135       24.3795595183
H               -28.9876170498       71.8986347548       26.1274762788
H               -30.5528222512       73.7348895177       25.3887685754
H               -31.3996925678       70.9219689849       26.1417192414
H               -30.9680776178       71.4200835349       23.2877162816
H               -29.5394232693       71.8965932841       24.1892889544
H               -33.1359659919       71.2789124741       24.2544592844
H               -33.4536826300       72.0501870825       25.8011703242
H               -32.8398819670       73.0037854959       24.4777673191
H               -29.3569420139       69.5282626045       23.6041045379
H               -29.6051705619       69.6700269290       25.3526665731
H               -30.9310883529       69.1853977510       24.3121839274
N               -32.0675096350       74.8269981468       26.9146197505
C               -33.2307887217       75.5279486138       27.4477908642
C               -34.5576647670       74.8955478064       26.9944505540
O               -34.5920398940       74.2168860374       25.9619126238
C               -33.1935420941       76.9455673230       26.8720955894
C               -34.2597102979       77.9789619059       27.3976489543
O               -34.3031136423       78.1676081615       28.6289211617
O               -34.9016632480       78.5970592172       26.5354412698
H               -31.8385353027       75.1453142315       25.9827715035
H               -33.1579272975       75.5193610649       28.5374340030
H               -32.2089112487       77.3751627652       27.0795752658
H               -33.3348770802       76.8868956574       25.7870191583
N               -37.4793358370       78.6161403397       23.1272070798
C               -36.9210362824       78.2729230522       21.8321985811
C               -37.1645386355       76.7329606923       21.6374877341
O               -37.4525040199       76.3921965979       20.4110169048
C               -35.4907539315       78.7605436537       21.7247789496
C               -34.9514721859       78.8066026427       20.3033408811
C               -33.4193497213       79.1197781194       20.3157837777
O               -32.6677642037       78.2853933980       20.8570065796
O               -33.0648719735       80.1913116401       19.7856591610
H               -36.7787163984       78.4526963485       23.8516866277
H               -37.5530482975       78.7530556441       21.0653419469
H               -35.4541593571       79.7634209304       22.1648106799
H               -34.8616765093       78.0999522378       22.3301473283
H               -35.1076975835       77.8293705628       19.8341321111
H               -35.4749874128       79.5708899421       19.7246635688
N               -36.0443562526       75.9862788530       22.2272786565
C               -35.6526954072       74.8478353034       21.4404047647
C               -36.8020518330       73.9305285906       21.0991964090
O               -36.7831936181       73.0940290716       20.1543434047
C               -34.6033648067       73.9859930387       22.1404246690
C               -33.1878227718       74.5665476414       22.0437753274
C               -32.8937310091       75.4524846106       23.2472056221
C               -32.1761474311       73.4378716756       21.8510529863
H               -36.3227612492       75.6808659957       23.1568723648
H               -35.2297495374       75.2028396740       20.4771088652
H               -34.9167015830       73.8599882741       23.1818396132
H               -34.6403234830       72.9942629646       21.6668837782
H               -33.1499689074       75.2110113345       21.1537688252
H               -31.8365288905       75.7050192159       23.2875643200
H               -33.4670055364       76.3729922425       23.1539665362
H               -33.2080539513       74.9698277406       24.1688852073
H               -31.1556601567       73.7646037863       22.0378967167
H               -32.4140638625       72.6126894837       22.5096493917
H               -32.2378821947       73.0577704183       20.8306404621
N               -37.7356288469       74.9024748805       17.7497383518
C               -36.9517014574       74.2215700141       16.7379833032
C               -37.5227749028       72.8886733407       16.2741908880
O               -37.4849653575       72.5660451396       15.0729781442
C               -35.4921491743       74.0618040358       17.1853488123
O               -35.2346937548       72.9379937037       17.9883873339
H               -37.4224371766       74.8221136067       18.7066511816
H               -36.9616330995       74.8723886599       15.8496208042
H               -34.8608655596       73.9215069323       16.3024400683
H               -35.1914698281       74.9848083075       17.7120106469
H               -35.8009386311       72.9772907801       18.7862381842
N               -37.9984203451       72.0580756576       17.2386323581
C               -38.6258047335       70.8152299777       16.8820780267
C               -40.1548802549       70.9158958906       16.7548307236
O               -40.8888286181       69.9436583884       16.9954876115
C               -38.2381208853       69.6845235830       17.8322391644
C               -37.1922716003       68.7664273755       17.2362143923
S               -36.9184960478       67.2312866284       18.1907082296
C               -38.6362909021       66.6666784764       18.3633770403
H               -38.2096892266       72.4244954190       18.1553429508
H               -38.2505021024       70.5916891491       15.8684892660
H               -37.8902601890       70.1089839330       18.7823605742
H               -39.1533873231       69.1246236716       18.0422915636
H               -37.4762047666       68.4703629940       16.2254649959
H               -36.2151019179       69.2512499928       17.2065997965
H               -38.5827040574       65.6467170565       18.7333846934
H               -39.1682270645       67.2786579829       19.0902931185
H               -39.1315338685       66.7086401719       17.3988708582
H               -21.7774769843       73.1889318447       16.7131465478
H               -41.1376904783       60.4583534509       19.4749053932
