 340 
 
N                 3.2294208622       44.4969893904        3.8588320302
C                 4.5617238486       45.0407497136        3.5736768415
C                 4.8549610998       44.8177519741        2.0727660798
O                 4.2512425803       43.9734051916        1.4188624213
C                 5.6526660264       44.3042390007        4.3970837542
C                 5.5361053723       44.6738660091        5.8950708883
C                 5.5418836696       42.7723816691        4.2110125834
H                 2.9742917159       43.6331621527        3.3749142850
H                 4.6029459209       46.1061145158        3.7712749135
H                 6.6098909159       44.6572992862        4.0233435435
H                 6.3001230561       44.1518199588        6.4454371413
H                 5.6652531684       45.7438203785        5.9963451799
H                 4.5669139468       44.3804951687        6.2871970906
H                 6.3467215106       42.2992433445        4.7555307559
H                 4.5972637697       42.4093280297        4.5869104158
H                 5.6419523244       42.5363521812        3.1548631958
N                 5.8924179332       45.5316565965        1.6375191896
C                 6.5224436637       45.3204327489        0.3740708457
C                 7.9043195403       44.7269914861        0.5954995395
O                 8.6252659063       45.0632180846        1.6144837916
C                 6.6467602504       46.6223411961       -0.4465284757
C                 5.3233435665       47.3864045420       -0.5045317265
C                 5.2955295749       48.4454517930       -1.6537576460
O                 6.1745130413       49.3664282219       -1.6225603590
O                 4.4349626880       48.2857439803       -2.5314243596
H                 6.2755413374       46.2411593049        2.2665581175
H                 5.8687298967       44.6153924596       -0.1613984396
H                 7.3855563522       47.2796641047        0.0021500601
H                 6.9759675307       46.3742443947       -1.4693201260
H                 4.4763506638       46.7116336397       -0.6751972047
H                 5.1404739935       47.9226956172        0.4310746088
N                 8.3816551600       43.8581680769       -0.2805943989
C                 9.7587598050       43.3811987323       -0.1468149909
C                10.7673831301       44.4942100487        0.1076034731
O                11.8720936696       44.2335201694        0.5912758214
C                 9.9973718455       42.6761689844       -1.5000586435
C                 8.6144130911       42.1271900957       -1.8524217078
C                 7.6737852271       43.2691895518       -1.3972331880
H                 9.8357454819       42.6754851346        0.6916675946
H                10.3440178541       43.3830344302       -2.2491286233
H                10.7480243180       41.8886901945       -1.4082414129
H                 8.5135215664       41.9290913310       -2.9070225961
H                 8.4016711358       41.2313598884       -1.2776340096
H                 7.5484315562       44.0153459926       -2.1889762815
H                 6.7022026078       42.8986004037       -1.0984595023
N                10.4557225212       45.7087211701       -0.3704457067
C                11.3444591022       46.8221920683       -0.3246897034
C                11.4491332856       47.5125962032        0.9881658430
O                12.2932727256       48.3930448612        1.1294802263
C                10.9038214786       47.9077757491       -1.3474609911
O                11.8892407098       48.8642363443       -1.5299637787
H                 9.5098069557       45.9123945571       -0.6670570706
H                12.3653148957       46.4687009128       -0.5899756991
H                10.7350407462       47.4351805113       -2.3176040439
H                 9.9518383386       48.3405930016       -0.9788379095
H                12.2110079828       49.1185893821       -0.6320963193
N                10.6123266120       47.1453437916        1.9926364064
C                10.5499245307       48.0117027597        3.1900156304
C                11.8028302676       47.7655017524        4.0229464118
O                12.3132038260       46.6489915427        4.0607533400
C                 9.3120435400       47.6790287632        3.9842654075
C                 7.9693431320       47.8056119235        3.1897532832
O                 6.9967443437       47.3205405417        3.6166952983
O                 8.1162003508       48.3899427758        2.0260840170
H                 9.8597125227       46.5002969182        1.8419262786
H                10.5109423619       49.0624013015        2.8827538077
H                 9.3486732591       46.6308368565        4.3329165984
H                 9.2105886127       48.3198453203        4.8637518731
N                12.2868052427       48.8031455535        4.6986260706
C                13.3525192428       48.6245392907        5.6482282101
C                12.7912915542       48.1126461187        6.9908476611
O                11.6146381249       48.2446767719        7.2925658343
C                14.1235936490       49.9415212123        5.8893253132
O                13.2063305521       50.8498290387        6.4681186848
C                14.7242753974       50.4560004619        4.5700037505
H                11.7712316507       49.6650841417        4.7507213568
H                14.0483256890       47.8807820240        5.2587014751
H                14.9213556617       49.7349548032        6.6158371473
H                13.5944984487       51.7337896406        6.4910841566
H                15.1713822089       51.4286228138        4.7385751175
H                15.4937457780       49.7684523006        4.2389211885
H                13.9554009105       50.5440253615        3.8076403628
N                13.7066163219       47.5050091652        7.7635053433
C                13.3952667242       47.0309878639        9.0943235992
C                12.8902022249       48.1973928722        9.9392691362
O                11.8999539705       48.0637826181       10.6509147844
C                14.6631025397       46.3782337002        9.7439414659
C                15.1031591135       45.0969882609        9.0134829746
C                14.4622055127       46.1348099255       11.1853217137
C                14.0600315953       43.9861370149        8.9976921463
H                14.6553639662       47.4294846459        7.4087695004
H                12.5738516615       46.3109832161        9.0366799469
H                15.4738813434       47.1008160610        9.5735096423
H                15.3431693517       45.3606799033        7.9523060260
H                16.0163292264       44.7833043161        9.4555738960
H                15.3328222587       45.6420007388       11.6204610723
H                14.2911523756       47.0859577769       11.7237637778
H                13.5741654263       45.5293953609       11.3712757950
H                14.4777680809       43.1158652282        8.4869078821
H                13.8033477513       43.6864801153       10.0077848261
H                13.1463431965       44.2778745873        8.4846553837
N                13.5641835956       49.3509582255        9.8440508137
C                13.0871629981       50.5263639000       10.5091297901
C                11.5846849702       50.7451649338       10.2948082263
O                10.8245414186       50.9922429680       11.1847210206
C                13.8235800635       51.7910473295        9.9742233293
C                13.5977846344       52.9751536105       10.9384472443
C                14.2186549756       54.2648330954       10.2951003195
O                13.4559644566       55.2530977920       10.1392221973
O                15.4122085899       54.1985425855        9.9898010148
H                14.4392089412       49.4096481891        9.3187377121
H                13.2594350023       50.4480732141       11.5907006577
H                14.8915007137       51.6096592830        9.9072499275
H                13.4438385441       52.0448550692        9.0029104315
H                12.5285197281       53.1533692743       11.0988170561
H                14.0787149620       52.7981165452       11.8922429487
N                11.2197562708       50.6361202014        9.0096041375
C                 9.8629230141       50.8912886058        8.5921736519
C                 8.9321922950       49.8709828497        9.2188813038
O                 7.8544474565       50.2301127742        9.7613372668
C                 9.7293889842       50.7933401320        7.0264706032
C                10.4814454012       51.9298927783        6.3586505524
O                11.0597485854       52.7885368717        6.9433316664
N                10.4677044252       51.8438089602        5.0002269976
H                11.9249776484       50.5849010917        8.2768478975
H                 9.5511584485       51.9057813852        8.9150075945
H                10.1553913728       49.8444449069        6.7249745784
H                 8.6767515101       50.8524785679        6.7807619713
H                 9.8145873047       51.2534139624        4.5458055597
H                10.8672855806       52.6399787197        4.5000388937
N                 9.2897110329       48.6182170257        9.1330695907
C                 8.4888671977       47.5800839188        9.7087646079
C                 8.2517922780       47.9119098567       11.2293505241
O                 7.1088829484       47.7889119800       11.7174921389
C                 9.1660887094       46.2194011574        9.5318293868
C                 8.4070592776       45.1313507830       10.3563198750
C                 9.1363137660       45.8443862125        8.0854389481
H                10.1742749710       48.3753202234        8.6819295795
H                 7.4968280247       47.5818983885        9.2551237851
H                10.1834088088       46.2974143374        9.9201177476
H                 8.9124210805       44.1811225730       10.2444484300
H                 8.3633258743       45.4053486434       11.4053137344
H                 7.3958222357       45.0407100576        9.9859794994
H                 9.5775378291       44.8563494908        7.9319257379
H                 8.1323239282       45.8246919290        7.6812443585
H                 9.7128470449       46.5492467949        7.4652481906
N                18.2298254813       47.9399480200       11.2269095897
C                17.1726047920       48.8831450743       10.8828332168
C                17.2127879252       49.3142753043        9.4193489670
O                16.1883742865       49.5028049312        8.7956896402
C                17.2363298099       50.0758028190       11.8587508441
C                17.0035526189       49.4348567186       13.2404392759
O                18.0332117945       48.9002185570       13.7917021647
O                15.8665591730       49.3769831417       13.6759069955
H                18.5289285555       48.0493665735       12.2066631905
H                16.1894521193       48.4029344033       11.0174833967
H                18.2070771310       50.5660448406       11.7899337128
H                16.4487667362       50.7880135679       11.6106314152
N                18.4495748079       49.4843778322        8.8891023567
C                18.6246006557       49.9676350198        7.5124411028
C                18.5800995263       48.9372687013        6.4075186478
O                18.7087980829       49.2770757113        5.2608089833
H                19.2561116482       49.2656232529        9.4412907896
H                17.8303101296       50.6882228591        7.3192304742
H                19.5771517350       50.5001595201        7.4615808443
N                18.4411069478       47.6567069726        6.7565254345
C                18.3091735874       46.6053697674        5.7848072180
C                16.8592962560       46.4718548507        5.3608105964
O                15.9478720091       46.9429392712        6.0553993124
C                18.7861783850       45.2933707694        6.4151210342
C                20.2790114642       45.2589513163        6.7112960045
C                21.0550367614       45.1204020670        5.4299447448
N                22.4661620825       44.9143784764        5.6932520403
C                23.3260223539       44.7670234651        4.6714988107
N                22.9025598541       44.7525035940        3.4438574637
N                24.6165393029       44.5693883847        4.9306340495
H                18.1869116233       47.4068013300        7.7160398392
H                18.9048207510       46.8738638929        4.9072877434
H                18.2228026549       45.1711264088        7.3650312825
H                18.5070223826       44.4595921849        5.7714186897
H                20.5641462059       46.1742757834        7.2406639864
H                20.5027918006       44.4174295134        7.3702055849
H                20.6534497956       44.2940913893        4.8369945896
H                20.9231841809       46.0169513051        4.8079902890
H                22.7846754001       44.9380926896        6.6443183950
H                21.9326677559       44.9225639051        3.1906890819
H                23.5740216863       44.7324981867        2.6238569486
H                24.9922137331       44.7285353894        5.8541800436
H                25.2898427281       44.4966579237        4.1315252846
N                16.6224953973       45.7784858574        4.1999944899
C                15.2587554781       45.5828094810        3.7854128694
C                14.8166660011       44.1508773171        3.9776424976
O                15.5629125461       43.1902892678        4.1138455644
C                15.0895840321       45.8906643485        2.2339580318
O                15.7050460180       44.8100885586        1.5237363159
C                15.6503800919       47.2496390116        1.9089683579
H                17.3960631995       45.4243435049        3.6818687972
H                14.6099590288       46.2424158238        4.3143176791
H                14.0066819794       45.8647546322        2.0433010342
H                15.5308501579       44.8809876272        0.6087559450
H                15.5304729298       47.4430980835        0.8341562680
H                15.0880448918       48.0152274074        2.4370563946
H                16.7067550980       47.3227680173        2.1393337343
N                13.4811266151       44.0088686907        3.9502768009
C                12.9339903705       42.6635846840        4.0859141458
C                13.5803270751       41.7780092398        3.0401678414
O                13.9695925865       40.5986606064        3.3567705355
C                11.4021312782       42.6784499136        3.8989655958
C                10.6716096082       43.4071430371        5.0515067341
C                 9.1739454315       43.2805118652        4.8345951923
C                11.0749207044       42.7857310889        6.4480926851
H                12.8757996150       44.8018377293        3.8683827068
H                13.1982268350       42.2569070130        5.0560707092
H                11.1654613005       43.2006470504        2.9791275071
H                11.0525861616       41.6546059415        3.8264237331
H                10.9531782702       44.4627437558        5.0597170578
H                 8.6357919047       43.8123144745        5.6161562647
H                 8.8988733362       43.7081028921        3.8743161289
H                 8.8717208727       42.2383304273        4.8636331252
H                10.3615974128       43.1078222617        7.1847185197
H                11.0449677042       41.7097425984        6.3661002259
H                12.0572495274       43.1131709010        6.7282372956
N                13.6501752993       42.2454213743        1.7878760769
C                14.2201367752       41.4022539042        0.7261010617
C                15.6795263973       41.0306845928        1.0154862282
O                16.0237473444       39.8614573432        0.7913025514
C                14.0883536046       42.0524558497       -0.6439524118
O                14.9015739442       43.2280447796       -0.7276896438
H                13.3510647129       43.1657397956        1.5739220718
H                13.6660906104       40.4606315081        0.7053468323
H                14.3820286850       41.3219509631       -1.4003610587
H                13.0488943822       42.3786452287       -0.7826603935
H                15.0154085959       43.4611156609       -1.6566204337
N                16.4563122014       41.9372306319        1.5895145520
C                17.8010054487       41.5955755232        2.0474427055
C                17.8768316363       40.3316783637        2.8879849061
O                18.8591437802       39.6429193189        2.9780643270
C                18.3995089969       42.7125971359        2.9165886469
C                18.9700501932       43.9095549674        2.0846893326
O                18.9714362749       43.8307166800        0.8416210296
O                19.4034871732       44.8434670322        2.7934488162
H                16.1703240601       42.8960475900        1.6874046541
H                18.4589285673       41.4629246081        1.1696913159
H                17.6397973552       43.0730971757        3.5920859276
H                19.2428954576       42.3209870558        3.4810583552
N                16.7945687749       40.0636381254        3.6316302516
C                16.8025415215       38.9227065298        4.5414134200
C                15.9575453067       37.8197210361        3.9795739256
O                15.6351103266       36.8579583434        4.7453411027
C                16.2319407883       39.3258710876        5.9594224269
C                17.1363018761       40.2032696828        6.6862057172
C                18.2909481904       39.6397015765        7.2750707819
C                16.7920423312       41.5217031363        6.9107311935
C                19.1512570589       40.4707709998        8.1117011939
C                17.6223068175       42.3405436544        7.8103498365
C                18.7726200008       41.7797888976        8.3326500309
O                19.5452061012       42.6209115603        9.1196786475
H                16.0004207255       40.6827129421        3.6278213707
H                17.8352417617       38.6000249979        4.6459782638
H                15.2796065078       39.8321315152        5.7659789548
H                16.0297698926       38.4014530773        6.4703944343
H                18.5457545416       38.6426530898        7.1510891979
H                15.9547903131       41.9884065340        6.4710845885
H                20.0136845378       40.0481089468        8.5416515754
H                17.3512461453       43.3478997551        7.9733833189
H                20.3854726220       42.2053544639        9.3443370475
O                11.2107297994       44.6366608519       -4.4205363074
H                12.1853493623       44.6620187645       -4.8167422343
H                10.6879271707       44.9600884457       -5.0220857221
N                 2.1241680958       41.9958460959        0.2327039822
C                 2.7738465370       40.8042469846        0.8325557153
C                 2.3896885599       40.8634853653        2.3373636761
O                 2.3472403534       41.9557644879        2.9091742106
C                 4.2784791953       40.9630466259        0.6148393014
C                 5.0851458560       39.9575608839        1.4379457645
S                 6.8039872854       39.7476141223        0.7691601396
C                 7.7654165811       40.1099698016        2.2762201001
H                 2.4693039664       42.3329071777       -0.6997312311
H                 1.0972296908       41.8721612572        0.1352087869
H                 2.3160831409       42.8049377741        0.8368272724
H                 2.3922264528       39.8815527458        0.3777324714
H                 4.4851732551       40.8198798738       -0.4463612737
H                 4.5688073535       41.9717634405        0.8654331912
H                 5.1744718742       40.2580192927        2.4876389662
H                 4.6233187965       38.9733109048        1.4054870758
H                 8.7940671180       39.8880411120        2.0447991396
H                 7.6193696217       41.1351995967        2.5846950720
H                 7.4261710481       39.4229882407        3.0571311060
N                -0.1160095720       47.8424198246       -3.8588320302
C                 0.4277507512       49.1747228110       -3.5736768415
C                 0.2047530117       49.4679600622       -2.0727660798
O                -0.6395937708       48.8642415427       -1.4188624213
C                -0.3087599617       50.2656649888       -4.3970837542
C                 0.0608670467       50.1491043347       -5.8950708883
C                -1.8406172933       50.1548826320       -4.2110125834
H                -0.9798368097       47.5872906783       -3.3749142850
H                 1.4931155534       49.2159448833       -3.7712749135
H                 0.0443003238       51.2228898783       -4.0233435435
H                -0.4611790036       50.9131220185       -6.4454371413
H                 1.1308214161       50.2782521308       -5.9963451799
H                -0.2325037937       49.1799129092       -6.2871970906
H                -2.3137556179       50.9597204730       -4.7555307559
H                -2.2036709327       49.2102627321       -4.5869104158
H                -2.0766467812       50.2549512868       -3.1548631958
N                 0.9186576341       50.5054168956       -1.6375191896
C                 0.7074337865       51.1354426261       -0.3740708457
C                 0.1139925237       52.5173185027       -0.5954995395
O                 0.4502191222       53.2382648687       -1.6144837916
C                 2.0093422337       51.2597592128        0.4465284757
C                 2.7734055796       49.9363425289        0.5045317265
C                 3.8324528306       49.9085285373        1.6537576460
O                 4.7534292595       50.7875120037        1.6225603590
O                 3.6727450179       49.0479616504        2.5314243596
H                 1.6281603425       50.8885402998       -2.2665581175
H                 0.0023934972       50.4817288591        0.1613984396
H                 2.6666651423       51.9985553146       -0.0021500601
H                 1.7612454323       51.5889664932        1.4693201260
H                 2.0986346773       49.0893496262        0.6751972047
H                 3.3096966548       49.7534729559       -0.4310746088
N                 2.5323448292       55.2253255744       -1.9926364064
C                 3.3987037973       55.1629234931       -3.1900156304
C                 3.1525027900       56.4158292300       -4.0229464118
O                 2.0359925803       56.9262027884       -4.0607533400
C                 3.0660298008       53.9250425024       -3.9842654075
C                 3.1926129611       52.5823420944       -3.1897532832
O                 2.7075415793       51.6097433061       -3.6166952983
O                 3.7769438134       52.7291993132       -2.0260840170
H                 1.8872979557       54.4727114851       -1.8419262786
H                 4.4494023391       55.1239413243       -2.8827538077
H                 2.0178378941       53.9616722215       -4.3329165984
H                 3.7068463579       53.8235875751       -4.8637518731
H                 2.1796479726       40.0209249846        2.8333222999
H                 3.1611143649       44.3146442365        4.7375154017
H                 9.0141775039       48.2193051853       11.7988036647
H                17.9308260898       47.0987733654       11.1127843760
H                15.6622839824       37.8528906214        3.0247333479
H                -0.2983547259       47.7741133273       -4.7375154017
H                -0.5509128821       52.8858991495        0.0541535281
H                 3.0439224930       55.2479886289       -1.2525183889
H                 3.9020933183       56.8263398493       -4.5421718650
