 518 
 
N                44.6170000000       44.3050000000       90.8820000000
C                43.8490000000       43.2930000000       91.5610000000
C                42.4780000000       43.1800000000       90.9190000000
O                41.8790000000       44.1790000000       90.4950000000
C                43.7090000000       43.6790000000       93.0230000000
C                44.9990000000       44.0430000000       93.7360000000
C                44.7900000000       44.3410000000       95.2040000000
C                45.9590000000       42.8900000000       93.6020000000
H                44.4120000000       45.2480000000       91.2120000000
H                44.3340000000       42.3190000000       91.4940000000
H                43.0490000000       44.5440000000       93.0850000000
H                43.2700000000       42.8360000000       93.5570000000
H                45.4000000000       44.9490000000       93.2810000000
H                45.7500000000       44.5940000000       95.6550000000
H                44.1010000000       45.1800000000       95.3010000000
H                44.3720000000       43.4590000000       95.6890000000
H                46.8890000000       43.1420000000       94.1110000000
H                45.5150000000       42.0040000000       94.0560000000
H                46.1510000000       42.7090000000       92.5440000000
N                39.7660000000       35.5730000000       93.6690000000
C                40.5690000000       36.7820000000       93.8250000000
C                41.9700000000       36.5850000000       93.3560000000
O                42.5880000000       35.5730000000       93.6630000000
C                40.5620000000       37.0460000000       95.3430000000
C                40.2910000000       35.7190000000       95.9480000000
C                39.3560000000       35.0330000000       94.9720000000
H                40.0970000000       37.6080000000       93.2930000000
H                41.5310000000       37.4310000000       95.6600000000
H                39.7770000000       37.7590000000       95.5940000000
H                41.2210000000       35.1610000000       96.0550000000
H                39.8170000000       35.8430000000       96.9210000000
H                39.4900000000       33.9520000000       95.0020000000
H                38.3180000000       35.2860000000       95.1870000000
N                45.5650000000       38.8200000000       91.2380000000
C                46.2030000000       39.9870000000       90.6390000000
C                46.7760000000       39.5940000000       89.2850000000
O                46.9820000000       38.4060000000       89.0110000000
C                47.3490000000       40.4700000000       91.5090000000
C                48.5240000000       39.5230000000       91.4320000000
C                49.6670000000       39.9250000000       92.3020000000
N                50.3030000000       38.7280000000       92.7770000000
C                51.2920000000       38.7030000000       93.6360000000
N                51.8340000000       39.8180000000       94.0560000000
N                51.7860000000       37.5420000000       94.0310000000
H                46.1950000000       38.0270000000       91.3570000000
H                45.4720000000       40.7870000000       90.5160000000
H                47.6740000000       41.4530000000       91.1670000000
H                47.0180000000       40.5270000000       92.5460000000
H                48.1990000000       38.5310000000       91.7460000000
H                48.8830000000       39.4900000000       90.4040000000
H                50.3860000000       40.5120000000       91.7310000000
H                49.3070000000       40.5030000000       93.1530000000
H                49.9610000000       37.8350000000       92.4210000000
H                51.4870000000       40.7140000000       93.7140000000
H                52.6040000000       39.7910000000       94.7250000000
H                51.3970000000       36.6720000000       93.6670000000
H                52.5560000000       37.5160000000       94.7000000000
N                45.3010000000       34.2350000000       94.4250000000
C                45.6050000000       34.2800000000       95.8340000000
C                45.0970000000       33.0710000000       96.5740000000
O                44.1370000000       32.4140000000       96.1510000000
C                44.9930000000       35.4880000000       96.4510000000
C                45.6230000000       36.7610000000       96.0310000000
C                46.8160000000       37.1840000000       96.6100000000
C                44.9980000000       37.5780000000       95.0900000000
C                47.3830000000       38.3900000000       96.2370000000
C                45.5600000000       38.7840000000       94.7070000000
C                46.7510000000       39.1990000000       95.2890000000
H                44.5660000000       34.8790000000       94.1330000000
H                46.6900000000       34.3100000000       95.9370000000
H                43.9410000000       35.5300000000       96.1700000000
H                45.0860000000       35.4130000000       97.5340000000
H                47.3010000000       36.5690000000       97.3530000000
H                44.0610000000       37.2650000000       94.6530000000
H                48.3160000000       38.7070000000       96.6800000000
H                45.0760000000       39.3970000000       93.9610000000
H                47.1880000000       40.1460000000       95.0090000000
N                45.7650000000       32.7750000000       97.6860000000
C                45.4210000000       31.6510000000       98.5500000000
C                45.9510000000       30.3380000000       98.0000000000
O                46.6800000000       29.6290000000       98.6630000000
H                46.5670000000       33.3070000000       98.0230000000
H                45.8470000000       31.8100000000       99.5400000000
H                44.3370000000       31.5780000000       98.6380000000
N                47.7690000000       30.3120000000       95.1820000000
C                48.9940000000       30.6880000000       94.4980000000
C                49.1810000000       29.9340000000       93.1860000000
O                50.2920000000       29.5440000000       92.8460000000
C                50.2170000000       30.4600000000       95.3820000000
C                50.2080000000       31.2250000000       96.6600000000
N                50.8530000000       30.7660000000       97.7880000000
C                49.6390000000       32.4040000000       96.9960000000
C                50.6790000000       31.6320000000       98.7690000000
N                49.9530000000       32.6400000000       98.3120000000
H                47.1760000000       31.1050000000       95.4260000000
H                48.9060000000       31.7500000000       94.2680000000
H                50.2710000000       29.4010000000       95.6330000000
H                51.1070000000       30.7570000000       94.8270000000
H                49.0490000000       33.0400000000       96.3520000000
H                51.0640000000       31.5350000000       99.7740000000
H                49.6720000000       33.4600000000       98.8500000000
N                38.8710000000       44.3780000000       91.2590000000
C                38.5910000000       43.8410000000       92.5750000000
C                37.7180000000       44.7790000000       93.3620000000
O                36.6360000000       44.3950000000       93.7820000000
C                39.8690000000       43.5220000000       93.3350000000
C                39.6880000000       43.4770000000       94.8280000000
C                39.0140000000       42.4280000000       95.4500000000
C                40.1870000000       44.4870000000       95.6200000000
C                38.8520000000       42.3840000000       96.8320000000
C                40.0370000000       44.4600000000       96.9960000000
C                39.3730000000       43.4130000000       97.6040000000
O                39.2520000000       43.4580000000       98.9760000000
H                39.7980000000       44.7890000000       91.1520000000
H                38.0620000000       42.8970000000       92.4470000000
H                40.2340000000       42.5460000000       93.0140000000
H                40.6110000000       44.2890000000       93.1120000000
H                38.6080000000       41.6300000000       94.8460000000
H                40.7050000000       45.3150000000       95.1590000000
H                38.3290000000       41.5610000000       97.2960000000
H                40.4410000000       45.2610000000       97.5970000000
H                39.6870000000       44.2640000000       99.3250000000
N                38.9330000000       31.6560000000      101.0780000000
C                38.8490000000       32.6830000000      102.1310000000
C                40.2150000000       33.1010000000      102.6830000000
O                40.2970000000       33.9450000000      103.5890000000
C                37.9210000000       32.2340000000      103.2820000000
O                38.4840000000       31.1750000000      104.0430000000
H                38.5190000000       30.7570000000      101.3230000000
H                38.3910000000       33.5670000000      101.6880000000
H                37.7480000000       33.0840000000      103.9420000000
H                36.9770000000       31.8940000000      102.8560000000
H                37.8700000000       30.9160000000      104.7620000000
N                41.2540000000       32.4480000000      102.1630000000
C                42.6590000000       32.7570000000      102.4010000000
C                43.1300000000       33.7300000000      101.3200000000
O                43.7880000000       34.7110000000      101.6050000000
C                43.4860000000       31.4580000000      102.4080000000
C                43.1140000000       30.4660000000      103.5340000000
C                41.8930000000       29.5360000000      103.2690000000
O                41.1740000000       29.6720000000      102.2460000000
O                41.6200000000       28.6520000000      104.1210000000
H                41.1470000000       31.6520000000      101.5350000000
H                42.8220000000       33.2070000000      103.3800000000
H                43.3370000000       30.9470000000      101.4570000000
H                44.5380000000       31.7170000000      102.5320000000
H                43.9730000000       29.8200000000      103.7130000000
H                42.8870000000       31.0420000000      104.4310000000
N                42.7550000000       33.4700000000      100.0770000000
C                42.9350000000       34.4360000000       99.0020000000
C                42.2700000000       35.7640000000       99.3100000000
O                42.8970000000       36.8420000000       99.2110000000
H                42.3210000000       32.5970000000       99.7760000000
H                44.0000000000       34.6110000000       98.8470000000
H                42.5040000000       34.0390000000       98.0830000000
N                41.0040000000       35.6680000000       99.7220000000
C                40.2250000000       36.8320000000      100.1440000000
C                40.9680000000       37.5540000000      101.2040000000
O                41.0310000000       38.7780000000      101.1790000000
C                38.8680000000       36.4490000000      100.7110000000
C                37.7440000000       36.0800000000       99.7390000000
C                36.5580000000       35.5500000000      100.5390000000
C                37.3240000000       37.2520000000       98.8630000000
H                40.4840000000       34.7920000000       99.7760000000
H                40.0520000000       37.4520000000       99.2650000000
H                39.0150000000       35.5840000000      101.3580000000
H                38.5060000000       37.2950000000      101.2960000000
H                38.1040000000       35.3100000000       99.0570000000
H                35.7550000000       35.2860000000       99.8510000000
H                36.8730000000       34.6690000000      101.0990000000
H                36.2180000000       36.3250000000      101.2260000000
H                36.5250000000       36.9280000000       98.1960000000
H                36.9710000000       38.0630000000       99.5000000000
H                38.1830000000       37.5850000000       98.2800000000
N                41.5350000000       36.8050000000      102.1470000000
C                42.3010000000       37.4720000000      103.1880000000
C                43.4820000000       38.1950000000      102.5850000000
O                43.6520000000       39.3320000000      102.8760000000
C                42.7450000000       36.5860000000      104.3610000000
C                43.4450000000       37.4420000000      105.4140000000
C                42.8640000000       38.1090000000      106.4590000000
C                44.8300000000       37.7830000000      105.4480000000
N                43.8140000000       38.8070000000      107.1570000000
C                45.0280000000       38.6270000000      106.5510000000
C                45.9190000000       37.4470000000      104.6610000000
C                46.2730000000       39.1310000000      106.8830000000
C                47.1530000000       37.9440000000      105.0000000000
C                47.3220000000       38.7770000000      106.0970000000
H                41.4840000000       35.7880000000      102.2130000000
H                41.6090000000       38.1760000000      103.6500000000
H                41.8750000000       36.1120000000      104.8140000000
H                43.4410000000       35.8260000000      104.0060000000
H                41.8110000000       38.0880000000      106.6980000000
H                43.6440000000       39.3690000000      107.9910000000
H                45.8000000000       36.8080000000      103.7990000000
H                46.4050000000       39.7810000000      107.7350000000
H                48.0110000000       37.6810000000      104.4000000000
H                48.3080000000       39.1510000000      106.3300000000
N                44.2410000000       37.5800000000      101.6910000000
C                45.4340000000       38.2280000000      101.1390000000
C                45.1550000000       39.5720000000      100.4110000000
O                45.7620000000       39.8600000000       99.4340000000
C                46.1930000000       37.2240000000      100.2460000000
C                46.9670000000       36.1260000000      100.9890000000
C                47.4190000000       34.9490000000      100.0940000000
O                47.0860000000       34.9480000000       98.8950000000
O                48.0940000000       33.9860000000      100.5630000000
H                44.0650000000       36.6430000000      101.3280000000
H                46.0770000000       38.5170000000      101.9710000000
H                45.4700000000       36.7280000000       99.5980000000
H                46.9140000000       37.7780000000       99.6450000000
H                47.8610000000       36.5670000000      101.4300000000
H                46.3280000000       35.7180000000      101.7720000000
N                44.2330000000       40.4010000000      100.8760000000
C                44.2160000000       41.8220000000      100.4920000000
C                43.6870000000       42.8550000000      101.5990000000
O                42.5010000000       43.2500000000      101.5480000000
C                43.4160000000       42.0520000000       99.1530000000
C                44.0030000000       41.4120000000       97.8770000000
C                43.2740000000       43.5570000000       98.8890000000
C                43.3860000000       40.1180000000       97.4170000000
H                43.4860000000       40.1310000000      101.5160000000
H                45.2760000000       42.0520000000      100.3840000000
H                42.4670000000       41.5480000000       99.3340000000
H                43.8900000000       42.1250000000       97.0600000000
H                45.0600000000       41.2140000000       98.0560000000
H                42.7200000000       43.7040000000       97.9620000000
H                42.7360000000       44.0140000000       99.7200000000
H                44.2670000000       43.9970000000       98.8020000000
H                43.8950000000       39.7840000000       96.5130000000
H                43.4980000000       39.3720000000       98.2040000000
H                42.3290000000       40.2830000000       97.2090000000
N                44.4640000000       43.2880000000      102.6200000000
C                45.6690000000       42.6670000000      103.2540000000
C                46.9110000000       42.6480000000      102.4250000000
O                47.0060000000       43.4360000000      101.4930000000
C                45.3860000000       41.2600000000      103.7930000000
C                44.0540000000       41.1280000000      104.5040000000
C                44.0060000000       41.9410000000      105.7350000000
O                45.0890000000       42.2530000000      106.2730000000
O                42.8760000000       42.2630000000      106.1430000000
H                44.2680000000       44.1710000000      103.0910000000
H                45.8920000000       43.3290000000      104.0910000000
H                45.3870000000       40.5590000000      102.9580000000
H                46.1690000000       40.9940000000      104.5030000000
H                43.2580000000       41.4660000000      103.8410000000
H                43.8940000000       40.0850000000      104.7770000000
N                47.8750000000       41.7900000000      102.7890000000
C                49.0800000000       41.4980000000      101.9500000000
C                48.8440000000       41.0990000000      100.4730000000
O                48.6070000000       39.9730000000      100.1550000000
C                49.9310000000       40.3980000000      102.6100000000
C                51.1760000000       40.0590000000      101.8040000000
O                51.4390000000       40.6540000000      100.7460000000
N                51.9410000000       39.0980000000      102.2910000000
H                47.8650000000       41.2680000000      103.6650000000
H                49.5970000000       42.4570000000      101.9000000000
H                50.2490000000       40.7370000000      103.5960000000
H                49.3320000000       39.4920000000      102.7030000000
H                52.7910000000       38.8230000000      101.7980000000
H                51.6820000000       38.6310000000      103.1600000000
N                49.0030000000       42.0110000000       99.5690000000
C                48.5480000000       41.7110000000       98.2580000000
C                49.6200000000       41.5170000000       97.2320000000
O                49.2860000000       41.0640000000       96.1370000000
C                47.6090000000       42.7830000000       97.8080000000
C                48.1630000000       44.1270000000       98.0610000000
O                48.5240000000       44.4240000000       99.1960000000
N                48.3200000000       44.9230000000       97.0130000000
H                49.4260000000       42.9290000000       99.7090000000
H                48.0560000000       40.7400000000       98.3210000000
H                47.4310000000       42.6810000000       96.7370000000
H                46.6690000000       42.6910000000       98.3520000000
H                48.6990000000       45.8620000000       97.1380000000
H                48.0610000000       44.5970000000       96.0820000000
N                50.8820000000       41.9410000000       97.5110000000
C                51.8580000000       41.3780000000       96.6330000000
C                52.5890000000       40.3440000000       97.4340000000
O                53.7330000000       40.5470000000       97.8260000000
C                52.7060000000       42.5860000000       96.2060000000
C                52.6340000000       43.5220000000       97.3520000000
C                51.4890000000       43.0710000000       98.2460000000
H                51.4720000000       40.9640000000       95.7010000000
H                53.7330000000       42.2730000000       96.0210000000
H                52.2860000000       43.0360000000       95.3070000000
H                53.5760000000       43.4920000000       97.9000000000
H                52.4500000000       44.5300000000       96.9810000000
H                51.8640000000       42.7420000000       99.2150000000
H                50.7660000000       43.8750000000       98.3800000000
N                51.8660000000       39.2590000000       97.7170000000
C                52.4460000000       38.0760000000       98.3370000000
C                53.2390000000       37.3930000000       97.2760000000
O                52.9160000000       37.4720000000       96.1000000000
C                51.3890000000       37.0350000000       98.7740000000
O                50.3540000000       37.6810000000       99.5060000000
C                52.0050000000       35.9060000000       99.6230000000
H                50.8680000000       39.1710000000       97.5260000000
H                53.0110000000       38.3820000000       99.2180000000
H                50.9700000000       36.5700000000       97.8820000000
H                49.6810000000       37.0250000000       99.7850000000
H                51.2330000000       35.1930000000       99.9120000000
H                52.7710000000       35.3840000000       99.0500000000
H                52.4580000000       36.3210000000      100.5230000000
N                54.2430000000       36.6700000000       97.7140000000
C                54.9650000000       35.7790000000       96.8470000000
C                54.7120000000       34.3590000000       97.3580000000
O                54.5450000000       34.1310000000       98.6000000000
C                56.4760000000       36.1530000000       96.8240000000
C                56.7190000000       37.3250000000       95.8740000000
C                57.0200000000       36.4940000000       98.2220000000
H                54.5810000000       36.6820000000       98.6760000000
H                54.6050000000       35.8340000000       95.8200000000
H                57.0210000000       35.2780000000       96.4700000000
H                57.7820000000       37.5680000000       95.8750000000
H                56.4040000000       37.0400000000       94.8700000000
H                56.1410000000       38.1840000000       96.2150000000
H                58.0770000000       36.7460000000       98.1400000000
H                56.4660000000       37.3430000000       98.6210000000
H                56.8940000000       35.6290000000       98.8730000000
N                54.6190000000       33.4160000000       96.4190000000
C                55.0010000000       32.0200000000       96.7370000000
C                55.2000000000       31.3070000000       95.4710000000
O                54.5670000000       31.6950000000       94.5110000000
C                53.9590000000       31.2650000000       97.5510000000
C                54.6050000000       30.3400000000       98.5570000000
C                53.6740000000       29.2550000000       99.0100000000
C                53.3530000000       28.3040000000       97.8680000000
N                52.7150000000       27.0930000000       98.4250000000
O                55.9830000000       30.3590000000       95.4150000000
H                54.2970000000       33.5700000000       95.4640000000
H                55.9010000000       32.0450000000       97.3510000000
H                53.3370000000       31.9790000000       98.0910000000
H                53.3430000000       30.6660000000       96.8800000000
H                55.4770000000       29.8700000000       98.1030000000
H                54.9050000000       30.9160000000       99.4320000000
H                54.1430000000       28.6850000000       99.8130000000
H                52.7430000000       29.6990000000       99.3620000000
H                52.6650000000       28.7790000000       97.1690000000
H                54.2700000000       28.0180000000       97.3520000000
H                52.4870000000       26.4270000000       97.6590000000
H                53.3590000000       26.6280000000       99.0960000000
H                51.8380000000       27.3490000000       98.9220000000
N                56.4372490850       44.2254641609       92.2260000000
C                56.1269454224       45.2360024516       93.2580000000
C                56.5461036046       44.6880057196       94.6160000000
O                56.3897432396       43.5011816231       94.8320000000
C                54.6478259010       45.6280922901       93.2780000000
C                54.4174222755       47.0890215045       92.9040000000
S                52.7079688536       47.7041613245       93.0370000000
C                51.7716875119       46.6604744705       91.9110000000
H                55.6229132976       43.7429932028       91.8450000000
H                56.6698377273       46.1523195067       93.0260000000
H                54.1069938872       45.0073437639       92.5630000000
H                54.2530612198       45.4703398053       94.2820000000
H                55.0306799152       47.7072148945       93.5600000000
H                54.7253953055       47.2264464397       91.8670000000
H                50.7250666093       46.9656738909       91.9310000000
H                52.1728348790       46.7752820916       90.9040000000
H                51.8617046779       45.6223887756       92.2310000000
N                57.1014670527       45.5359234283       95.5150000000
C                57.6627014958       45.0560099988       96.7980000000
C                56.6435203022       45.1167363892       97.9250000000
O                55.5834334111       45.7126120336       97.7370000000
C                58.7935539437       46.0347038943       97.0520000000
C                58.2558997201       47.3254594621       96.4980000000
C                57.2779043693       46.9975218250       95.3850000000
H                58.0461628350       44.0401845210       96.7030000000
H                58.9949673732       46.1135621876       98.1200000000
H                59.6940197470       45.7203564162       96.5250000000
H                57.7496556580       47.8706190256       97.2940000000
H                59.0839964151       47.9177650114       96.1080000000
H                56.3315969332       47.5184692661       95.5330000000
H                57.6960543138       47.2537787740       94.4120000000
N                56.8772817153       44.4656230337       99.0580000000
C                55.7779735887       44.3035655051      100.0160000000
C                56.0163588519       44.7744608929      101.4500000000
O                56.6786381218       44.0895622371      102.2300000000
C                55.3078337687       42.8452594503      100.0300000000
C                53.7974526490       42.6792026123      100.0600000000
C                53.2165072797       42.8829757162      101.4460000000
O                52.0673319315       43.3605456262      101.5470000000
O                53.9111865866       42.5661955707      102.4350000000
H                57.7712545603       44.0580294217       99.3310000000
H                55.0287161341       45.0098135258       99.6590000000
H                55.6773701726       42.3513152771       99.1310000000
H                55.7117528585       42.3568678360      100.9170000000
H                53.3451393676       43.4137730278       99.3930000000
H                53.5434038637       41.6711772085       99.7320000000
N                55.4274174413       45.9123844469      101.8150000000
C                54.7635811483       46.8325862597      100.8510000000
C                54.8612889915       48.2738212084      101.3630000000
O                55.0200473218       48.5227987025      102.5700000000
C                53.2940775598       46.4593313825      100.6240000000
O                54.7820012989       49.2144908963      100.5730000000
H                55.3841142843       46.2433811789      102.7790000000
H                55.2651752659       46.7473727562       99.8870000000
H                52.8558790151       47.1603492392       99.9140000000
H                53.2426812964       45.4463104429      100.2260000000
H                52.7636892136       46.5126718191      101.5750000000
N                59.1912777567       47.5255817460      104.4620000000
C                59.2362859945       46.7975383005      103.1720000000
C                60.6123574211       46.0769639263      103.1350000000
O                61.3860252223       46.1729958661      104.1060000000
C                59.0492355074       47.7715573533      101.9540000000
O                57.9382999421       48.6473605103      102.1910000000
C                58.7971752164       47.0429761226      100.6120000000
H                60.1233711837       47.7680149189      104.7980000000
H                58.4311315858       46.0649699567      103.1170000000
H                59.9809969206       48.3294154615      101.8560000000
H                57.8224256790       49.2546603992      101.4310000000
H                58.6760093020       47.7711106028       99.8100000000
H                59.6403320174       46.3933665407      100.3760000000
H                57.8926169971       46.4382353285      100.6800000000
N                60.9045252223       45.3390134022      102.0560000000
C                62.2896043811       44.9700408778      101.7230000000
C                63.1591255058       46.2300956440      101.5640000000
O                64.3767893483       46.1471512858      101.7410000000
C                62.3404042701       44.1220288666      100.4570000000
H                60.2129285273       44.9831327882      101.3960000000
H                62.6964490968       44.3587165962      102.5290000000
H                63.3779463344       43.8671044369      100.2420000000
H                61.7603350507       43.2133195067      100.6150000000
H                61.9186217322       44.6934800812       99.6300000000
N                46.5810000000       39.0950000000      113.5130000000
C                45.7210000000       38.9840000000      112.3480000000
C                46.3180000000       38.1920000000      111.2170000000
O                45.9100000000       38.3910000000      110.0700000000
H                47.1940000000       39.9100000000      113.4930000000
H                44.7900000000       38.5000000000      112.6420000000
H                45.4990000000       39.9840000000      111.9760000000
N                47.2720000000       37.3020000000      111.5330000000
C                47.9570000000       36.4700000000      110.5400000000
C                47.0680000000       35.3020000000      110.2340000000
O                46.4610000000       34.7740000000      111.1440000000
C                49.2690000000       35.8890000000      111.0910000000
C                50.3550000000       36.8900000000      111.4800000000
C                50.7460000000       37.8270000000      110.3330000000
C                50.1010000000       39.2010000000      110.4770000000
N                50.1100000000       39.9580000000      109.2030000000
H                47.5970000000       37.1330000000      112.4850000000
H                48.1810000000       37.0700000000      109.6580000000
H                49.0330000000       35.3120000000      111.9850000000
H                49.6950000000       35.2370000000      110.3290000000
H                49.9930000000       37.5030000000      112.3050000000
H                51.2470000000       36.3440000000      111.7860000000
H                51.8280000000       37.9570000000      110.3280000000
H                50.4190000000       37.3940000000      109.3880000000
H                49.0650000000       39.0790000000      110.7920000000
H                50.6510000000       39.7790000000      111.2200000000
H                49.6630000000       40.8870000000      109.3380000000
H                51.0880000000       40.0980000000      108.8790000000
H                49.5850000000       39.4340000000      108.4740000000
N                46.9920000000       34.8730000000      108.9620000000
C                46.2320000000       33.6280000000      108.7060000000
C                46.7940000000       32.4060000000      109.4450000000
O                47.8190000000       32.5260000000      110.1340000000
C                46.2880000000       33.4950000000      107.1880000000
C                46.3300000000       34.9250000000      106.7210000000
C                47.2070000000       35.6420000000      107.7180000000
H                45.1950000000       33.7450000000      109.0210000000
H                47.1840000000       32.9520000000      106.8870000000
H                45.4000000000       32.9820000000      106.8190000000
H                46.7580000000       34.9750000000      105.7200000000
H                45.3230000000       35.3430000000      106.7170000000
H                48.2530000000       35.6050000000      107.4140000000
H                46.8900000000       36.6780000000      107.8410000000
N                40.5570000000       31.6560000000      109.1200000000
C                40.6410000000       32.6830000000      108.0670000000
C                39.2750000000       33.1010000000      107.5150000000
O                39.1930000000       33.9450000000      106.6090000000
C                41.5690000000       32.2340000000      106.9160000000
O                41.0060000000       31.1750000000      106.1550000000
H                40.9710000000       30.7570000000      108.8750000000
H                41.0990000000       33.5670000000      108.5100000000
H                41.7420000000       33.0840000000      106.2560000000
H                42.5130000000       31.8940000000      107.3420000000
H                41.6200000000       30.9160000000      105.4360000000
N                38.4860000000       35.6680000000      110.4760000000
C                39.2650000000       36.8320000000      110.0540000000
C                38.5220000000       37.5540000000      108.9940000000
O                38.4590000000       38.7780000000      109.0190000000
C                40.6220000000       36.4490000000      109.4870000000
C                41.7460000000       36.0800000000      110.4590000000
C                42.9320000000       35.5500000000      109.6590000000
C                42.1660000000       37.2520000000      111.3350000000
H                39.0060000000       34.7920000000      110.4220000000
H                39.4380000000       37.4520000000      110.9330000000
H                40.4750000000       35.5840000000      108.8400000000
H                40.9840000000       37.2950000000      108.9020000000
H                41.3860000000       35.3100000000      111.1410000000
H                43.7350000000       35.2860000000      110.3470000000
H                42.6170000000       34.6690000000      109.0990000000
H                43.2720000000       36.3250000000      108.9720000000
H                42.9650000000       36.9280000000      112.0020000000
H                42.5190000000       38.0630000000      110.6980000000
H                41.3070000000       37.5850000000      111.9180000000
H                45.4946165475       44.1542781741       91.0126603486
H                42.0392676323       42.2856994712       90.8310200379
H                39.0696472937       35.7429995858       93.1247637928
H                42.4096292362       37.2807721719       92.7879971660
H                45.2478873498       39.0357560789       92.0521798828
H                46.9890502771       40.2989945397       88.6085443263
H                46.0373536979       34.4447545019       93.9519394536
H                45.7003807257       30.0448719516       97.0773592646
H                47.2845567056       29.7680653819       94.6533698593
H                48.3938722575       29.7544507961       92.5959220387
H                38.8070333318       43.7214361563       90.6467646004
H                38.0229408823       45.7144535008       93.5407115165
H                38.5053795941       31.9457247594      100.3409787301
H                56.8530711586       44.6216052879       91.5330611783
H                58.7229375012       48.2874344923      104.3608179965
H                62.7354591195       47.1024190459      101.3199535379
H                46.0752949282       39.1581454258      114.2548052545
H                46.3345774099       31.5210112852      109.3693305981
H                40.9846204059       31.9457247594      109.8570212699
H                38.4401983810       32.6930786626      107.8847383392
H                38.2248651745       35.7750448375      111.3306051753
H                38.0736655627       37.0426772386      108.2608252146
