 522 
 
N                24.2470000000       45.9280000000       16.0670000000
C                23.8680000000       45.5030000000       14.6960000000
C                24.5590000000       44.2200000000       14.1820000000
O                24.1330000000       43.7840000000       13.1240000000
C                24.1370000000       46.6560000000       13.7060000000
O                25.4150000000       47.1370000000       14.0340000000
H                25.1940000000       46.3540000000       16.0080000000
H                23.5970000000       46.6630000000       16.3730000000
H                24.1950000000       45.0820000000       16.7300000000
H                22.7970000000       45.2720000000       14.6590000000
H                24.0880000000       46.2790000000       12.6800000000
H                23.3710000000       47.4350000000       13.8080000000
H                25.6780000000       47.8480000000       13.4430000000
N                13.1820000000       39.9990000000        6.1550000000
C                13.7380000000       40.9860000000        5.1960000000
C                13.0180000000       42.3220000000        5.3840000000
O                13.6050000000       43.4170000000        5.4420000000
C                13.4960000000       40.3880000000        3.8040000000
C                14.2940000000       41.0140000000        2.6920000000
C                14.1160000000       40.1790000000        1.3290000000
O                13.0410000000       39.5520000000        1.1830000000
O                15.0640000000       40.2170000000        0.5420000000
H                12.7950000000       39.1530000000        5.7580000000
H                14.8070000000       41.1340000000        5.3920000000
H                13.7480000000       39.3240000000        3.8490000000
H                12.4300000000       40.4590000000        3.5670000000
H                13.9610000000       42.0320000000        2.4740000000
H                15.3620000000       41.0390000000        2.9060000000
N                11.6710000000       42.2860000000        5.5440000000
C                10.9630000000       43.5500000000        5.6400000000
C                11.2650000000       44.2950000000        6.9000000000
O                11.1380000000       45.5390000000        7.0070000000
C                 9.4930000000       43.1990000000        5.6220000000
C                 9.0610000000       42.9050000000        4.1740000000
O                 9.8020000000       43.0600000000        3.2060000000
N                 7.8250000000       42.4190000000        4.0600000000
H                11.1470000000       41.4370000000        5.3740000000
H                11.2090000000       44.1860000000        4.7750000000
H                 9.3140000000       42.3090000000        6.2210000000
H                 8.8850000000       44.0190000000        6.0120000000
H                 7.5170000000       42.1020000000        3.1540000000
H                 7.3290000000       42.1070000000        4.8880000000
N                11.6630000000       43.4990000000        7.9290000000
C                11.9210000000       44.0630000000        9.2700000000
C                13.1890000000       44.9400000000        9.2470000000
O                13.3570000000       45.8250000000       10.0870000000
C                12.0680000000       42.9480000000       10.2970000000
C                12.0900000000       43.4780000000       11.7710000000
C                10.6840000000       43.7900000000       12.2940000000
N                10.7750000000       44.4200000000       13.6030000000
C                10.4180000000       43.9550000000       14.7940000000
N                 9.7780000000       42.8010000000       14.9420000000
N                10.7950000000       44.6180000000       15.9030000000
H                11.6770000000       42.4980000000        7.8170000000
H                11.0810000000       44.7180000000        9.5240000000
H                11.2380000000       42.2510000000       10.1760000000
H                12.9990000000       42.4160000000       10.0910000000
H                12.5520000000       42.7240000000       12.4060000000
H                12.7000000000       44.3810000000       11.8090000000
H                10.1720000000       44.4840000000       11.6210000000
H                10.0850000000       42.8820000000       12.3610000000
H                11.2570000000       45.3190000000       13.6010000000
H                 9.1280000000       42.5390000000       14.2120000000
H                 9.5050000000       42.6000000000       15.9010000000
H                11.0940000000       45.5710000000       15.7870000000
H                10.3220000000       44.3580000000       16.7670000000
N                14.0700000000       44.5960000000        8.3130000000
C                15.3800000000       45.2430000000        8.1790000000
C                16.5840000000       44.4260000000        8.6050000000
O                17.7070000000       44.9340000000        8.6370000000
H                13.8230000000       43.9060000000        7.6180000000
H                15.5350000000       45.5480000000        7.1410000000
H                15.3490000000       46.1420000000        8.8020000000
N                16.3710000000       43.1380000000        8.8790000000
C                17.5170000000       42.2850000000        9.2060000000
C                18.2330000000       41.8780000000        7.9500000000
O                17.6740000000       41.9210000000        6.8470000000
C                17.0410000000       41.0100000000        9.9420000000
C                16.5730000000       41.3330000000       11.3330000000
C                17.4200000000       41.9480000000       12.2150000000
C                15.2790000000       41.0360000000       11.7570000000
C                17.0330000000       42.2630000000       13.5230000000
C                14.8950000000       41.3410000000       13.0590000000
C                15.7510000000       41.9730000000       13.9350000000
H                15.4980000000       42.6960000000        8.6280000000
H                18.1900000000       42.8660000000        9.8410000000
H                16.2440000000       40.5510000000        9.3540000000
H                17.8860000000       40.3190000000        9.9950000000
H                18.4280000000       42.1710000000       11.8970000000
H                14.5850000000       40.5560000000       11.0850000000
H                17.7250000000       42.7470000000       14.1960000000
H                13.8980000000       41.0810000000       13.3830000000
H                15.4320000000       42.2200000000       14.9360000000
N                19.5380000000       41.5140000000        8.1040000000
C                20.3470000000       41.3020000000        6.9280000000
C                20.5690000000       39.8060000000        6.7540000000
O                21.0500000000       39.1330000000        7.6840000000
C                21.7280000000       41.9730000000        7.0910000000
C                22.6550000000       41.7090000000        5.8830000000
C                23.9380000000       42.5470000000        5.8890000000
C                24.6840000000       42.4980000000        7.2010000000
N                25.9780000000       43.2180000000        7.1170000000
H                19.9800000000       41.4870000000        9.0190000000
H                19.8030000000       41.6960000000        6.0680000000
H                21.5670000000       43.0430000000        7.2050000000
H                22.1770000000       41.5740000000        8.0020000000
H                22.9040000000       40.6450000000        5.8630000000
H                22.1030000000       41.9120000000        4.9650000000
H                24.5790000000       42.1840000000        5.0850000000
H                23.6730000000       43.5810000000        5.6640000000
H                24.0880000000       42.9680000000        7.9850000000
H                24.8780000000       41.4610000000        7.4800000000
H                26.4290000000       43.2140000000        8.0390000000
H                26.5980000000       42.7460000000        6.4260000000
H                25.8110000000       44.1820000000        6.7750000000
N                21.5160000000       41.4380000000       12.7990000000
C                21.0690000000       42.7690000000       13.1390000000
C                20.8560000000       42.8910000000       14.6280000000
O                21.0210000000       41.9330000000       15.3590000000
H                21.9790000000       40.9110000000       13.5330000000
H                21.8340000000       43.4970000000       12.8340000000
H                20.1580000000       43.0170000000       12.5880000000
N                20.5690000000       44.1210000000       15.0830000000
C                20.4450000000       44.3320000000       16.5360000000
C                19.3630000000       43.4530000000       17.1190000000
O                18.2400000000       43.3940000000       16.6150000000
C                20.1040000000       45.8300000000       16.7800000000
C                20.0980000000       46.1540000000       18.2580000000
C                19.8030000000       47.6490000000       18.4610000000
N                20.9500000000       48.3720000000       18.0120000000
C                20.9610000000       49.6410000000       17.6050000000
N                19.8920000000       50.4080000000       17.7910000000
N                22.0720000000       50.1510000000       17.0980000000
H                20.2130000000       44.8300000000       14.4440000000
H                21.4050000000       44.0620000000       16.9860000000
H                20.8170000000       46.4500000000       16.2380000000
H                19.1130000000       46.0100000000       16.3600000000
H                19.3160000000       45.5780000000       18.7550000000
H                21.0500000000       45.8990000000       18.7220000000
H                18.9250000000       47.9270000000       17.8720000000
H                19.5900000000       47.8540000000       19.5160000000
H                21.8440000000       47.9360000000       18.1990000000
H                19.0040000000       50.0270000000       18.0700000000
H                19.8290000000       51.2920000000       17.3070000000
H                22.9390000000       49.6440000000       17.0280000000
H                22.0660000000       51.1320000000       16.8320000000
N                28.5330000000       41.7670000000        3.6070000000
C                28.0660000000       42.7850000000        2.6830000000
C                27.4340000000       43.9360000000        3.5090000000
O                27.1930000000       43.7950000000        4.6910000000
C                27.1030000000       42.3000000000        1.5860000000
C                25.8060000000       41.6940000000        2.1100000000
C                25.6360000000       40.5310000000        2.8200000000
C                24.5120000000       42.2530000000        1.9510000000
N                24.2980000000       40.2740000000        2.9950000000
C                23.5900000000       41.3140000000        2.4770000000
C                24.0830000000       43.4300000000        1.3460000000
C                22.1990000000       41.5010000000        2.3820000000
C                22.7160000000       43.6460000000        1.2640000000
C                21.8030000000       42.6630000000        1.7200000000
H                28.0400000000       41.6680000000        4.4920000000
H                28.9510000000       43.1730000000        2.1630000000
H                26.8500000000       43.1330000000        0.9330000000
H                27.6240000000       41.5460000000        0.9880000000
H                26.3570000000       39.8000000000        3.1300000000
H                23.8700000000       39.4510000000        3.3910000000
H                24.7700000000       44.1640000000        0.9500000000
H                21.4810000000       40.7600000000        2.7000000000
H                22.2950000000       44.5170000000        0.7780000000
H                20.7430000000       42.8440000000        1.5420000000
N                27.2220000000       45.0640000000        2.8450000000
C                26.6630000000       46.2210000000        3.5260000000
C                25.3700000000       46.6520000000        2.8100000000
O                25.4130000000       46.9690000000        1.6020000000
C                27.5780000000       47.4650000000        3.4830000000
C                26.9150000000       48.5030000000        4.4340000000
C                27.8220000000       49.6710000000        4.8000000000
C                27.1320000000       50.5680000000        5.8280000000
N                28.1140000000       51.4390000000        6.5450000000
H                27.5120000000       45.1610000000        1.8780000000
H                26.4650000000       45.9100000000        4.5510000000
H                28.5710000000       47.2030000000        3.8480000000
H                27.6450000000       47.8400000000        2.4660000000
H                26.0000000000       48.8830000000        3.9760000000
H                26.6390000000       47.9820000000        5.3500000000
H                28.7420000000       49.2610000000        5.2250000000
H                28.0820000000       50.2380000000        3.9080000000
H                26.3920000000       51.1870000000        5.3190000000
H                26.6150000000       49.9570000000        6.5690000000
H                27.6720000000       51.9530000000        7.3490000000
H                28.8570000000       50.8460000000        6.9440000000
H                28.5430000000       52.1010000000        5.8870000000
N                24.2660000000       46.6540000000        3.5660000000
C                22.9920000000       47.0800000000        2.9480000000
C                22.9900000000       48.5810000000        2.5570000000
O                23.3880000000       49.4580000000        3.3430000000
C                21.8530000000       46.7970000000        3.9190000000
O                20.6320000000       47.3510000000        3.4660000000
H                24.3020000000       46.4260000000        4.5680000000
H                22.8360000000       46.5100000000        2.0260000000
H                21.7380000000       45.7120000000        4.0370000000
H                22.1020000000       47.2410000000        4.8930000000
H                20.0410000000       47.4830000000        4.2310000000
N                22.4070000000       48.8560000000        1.3810000000
C                22.2760000000       50.2070000000        0.9440000000
C                21.4470000000       51.0830000000        1.8640000000
O                21.5870000000       52.3260000000        1.8590000000
C                21.6310000000       50.2770000000       -0.4660000000
H                22.0760000000       48.1120000000        0.7760000000
H                23.2750000000       50.6670000000        0.8940000000
H                21.5020000000       51.3110000000       -0.7790000000
H                22.2370000000       49.7470000000       -1.1930000000
H                20.6460000000       49.8080000000       -0.4360000000
N                20.5970000000       50.4360000000        2.6770000000
C                19.7510000000       51.1880000000        3.5980000000
C                20.1750000000       50.9930000000        5.0480000000
O                19.4220000000       51.3870000000        5.9960000000
C                18.2760000000       50.9150000000        3.4010000000
O                18.0110000000       49.5040000000        3.3230000000
C                17.7420000000       51.5470000000        2.1130000000
H                20.3320000000       49.4800000000        2.4840000000
H                19.9070000000       52.2540000000        3.3580000000
H                17.7310000000       51.3310000000        4.2670000000
H                18.4350000000       49.0520000000        4.0760000000
H                16.6870000000       51.3220000000        1.9970000000
H                17.8730000000       52.6250000000        2.1310000000
H                18.2650000000       51.1260000000        1.2590000000
N                21.4050000000       50.4910000000        5.3240000000
C                21.8570000000       50.3540000000        6.7040000000
C                21.6330000000       51.6270000000        7.5130000000
O                21.2210000000       51.5770000000        8.7040000000
C                23.3660000000       50.0030000000        6.6880000000
C                23.8470000000       49.7170000000        8.1090000000
C                23.6020000000       48.4950000000        8.7300000000
C                24.5120000000       50.7200000000        8.8090000000
C                24.0690000000       48.2680000000       10.0140000000
C                24.9950000000       50.4680000000       10.0820000000
C                24.7750000000       49.2450000000       10.6780000000
H                22.0610000000       50.3110000000        4.5700000000
H                21.2770000000       49.5670000000        7.2060000000
H                23.4890000000       49.1390000000        6.0350000000
H                23.8950000000       50.8530000000        6.2600000000
H                23.0360000000       47.7360000000        8.2130000000
H                24.6330000000       51.6900000000        8.3520000000
H                23.8550000000       47.3210000000       10.4840000000
H                25.5010000000       51.2520000000       10.6240000000
H                25.1250000000       49.0800000000       11.6850000000
N                22.0570000000       52.8220000000        6.9600000000
C                21.9700000000       53.9940000000        7.8010000000
C                20.5610000000       54.5570000000        7.8880000000
O                20.3070000000       55.5290000000        8.6400000000
C                22.8720000000       55.1340000000        7.2560000000
C                24.3750000000       54.7390000000        7.3470000000
O                24.7480000000       54.1230000000        8.3840000000
O                25.1010000000       55.0950000000        6.4060000000
H                22.2410000000       52.9280000000        5.9730000000
H                22.2840000000       53.7200000000        8.8170000000
H                22.5950000000       55.3420000000        6.2250000000
H                22.7170000000       56.0310000000        7.8540000000
N                19.6100000000       53.9810000000        7.1390000000
C                18.2040000000       54.2760000000        7.3510000000
C                17.5550000000       53.3250000000        8.3070000000
O                16.4520000000       53.6320000000        8.7910000000
C                17.4460000000       54.2910000000        5.9780000000
C                18.0580000000       55.3770000000        5.1530000000
C                18.9510000000       55.3200000000        4.1220000000
C                17.6970000000       56.7670000000        5.2900000000
N                19.2040000000       56.5640000000        3.5890000000
C                18.4690000000       57.4650000000        4.3230000000
C                16.9290000000       57.5000000000        6.2100000000
C                18.4020000000       58.8480000000        4.1970000000
C                16.8990000000       58.8870000000        6.0820000000
C                17.6000000000       59.5560000000        5.0800000000
H                19.7940000000       53.0700000000        6.7160000000
H                18.1440000000       55.2840000000        7.7840000000
H                17.5700000000       53.3120000000        5.5110000000
H                16.3890000000       54.4750000000        6.1710000000
H                19.4330000000       54.4480000000        3.7090000000
H                19.8740000000       56.7930000000        2.8630000000
H                16.3700000000       56.9890000000        6.9830000000
H                18.9640000000       59.3370000000        3.4150000000
H                16.2890000000       59.4500000000        6.7750000000
H                17.5300000000       60.6290000000        5.0060000000
N                18.1340000000       52.1530000000        8.5720000000
C                17.5810000000       51.2300000000        9.5590000000
C                18.2090000000       51.4940000000       10.9240000000
O                17.5140000000       51.2780000000       11.9420000000
C                17.8610000000       49.8050000000        9.1360000000
C                17.4960000000       48.8130000000       10.2350000000
C                17.1550000000       49.5540000000        7.8140000000
H                19.0410000000       51.9350000000        8.1910000000
H                16.5070000000       51.4170000000        9.6580000000
H                18.9480000000       49.7450000000        8.9730000000
H                17.6130000000       47.7960000000        9.8660000000
H                18.1300000000       48.9510000000       11.1080000000
H                16.4650000000       48.9540000000       10.5600000000
H                17.2350000000       48.5120000000        7.5160000000
H                16.0980000000       49.7890000000        7.9150000000
H                17.5730000000       50.1900000000        7.0370000000
N                19.4680000000       51.8940000000       10.9810000000
C                20.0860000000       52.1830000000       12.3250000000
C                20.5660000000       53.6600000000       12.5320000000
O                21.1560000000       54.1480000000       11.5460000000
C                21.3680000000       51.3380000000       12.4050000000
C                21.0110000000       49.8990000000       12.5410000000
C                20.4370000000       49.4470000000       13.7220000000
C                21.1380000000       49.0250000000       11.4570000000
C                20.0590000000       48.1010000000       13.8270000000
C                20.7500000000       47.6940000000       11.5550000000
C                20.2080000000       47.2380000000       12.7450000000
O                19.7830000000       45.9500000000       12.9110000000
O                20.4170000000       54.2560000000       13.6270000000
H                20.0230000000       52.0910000000       10.1620000000
H                19.3560000000       51.9250000000       13.0920000000
H                21.9520000000       51.5270000000       11.5020000000
H                21.9360000000       51.6870000000       13.2720000000
H                20.2720000000       50.1350000000       14.5370000000
H                21.5320000000       49.4110000000       10.5290000000
H                19.5680000000       47.7460000000       14.7170000000
H                20.8370000000       47.0360000000       10.7030000000
H                19.7270000000       45.4930000000       12.0270000000
O                19.6290000000       44.6530000000       10.7020000000
H                20.5360000000       44.5420000000       10.3430000000
H                19.0570000000       44.9200000000        9.9710000000
O                19.0080000000       47.8780000000        5.4700000000
H                19.0790000000       47.0070000000        5.9280000000
H                19.0280000000       48.5540000000        6.1510000000
O                19.3430000000       45.5820000000        1.9530000000
H                19.7690000000       46.3700000000        2.3310000000
H                18.9860000000       45.8410000000        1.0820000000
O                14.9370000000       50.7270000000       12.3130000000
H                15.8930000000       50.9850000000       12.1370000000
H                14.4600000000       51.5960000000       12.3910000000
O                16.3990000000       43.6490000000        5.0690000000
H                16.5270000000       44.6000000000        5.2470000000
H                15.4350000000       43.5060000000        5.1830000000
O                24.8950000000       51.8250000000        3.2610000000
H                24.7570000000       52.0760000000        2.3440000000
H                24.1270000000       52.1540000000        3.7390000000
O                13.9510000000       52.5630000000        9.1390000000
H                14.8580000000       52.9380000000        9.0340000000
H                13.7430000000       52.6530000000       10.0760000000
O                24.0490000000       54.1670000000       11.1300000000
H                24.2550000000       54.1520000000       10.1780000000
H                23.0830000000       54.1320000000       11.2110000000
O                24.5790000000       46.0000000000        6.2700000000
H                24.9090000000       46.7730000000        6.7410000000
H                23.6980000000       45.8320000000        6.6470000000
O                15.4770000000       48.3220000000        4.1340000000
H                16.2980000000       48.7310000000        3.8130000000
H                14.8620000000       48.3880000000        3.3850000000
O                19.6140000000       45.3310000000        6.5030000000
H                19.5840000000       44.7270000000        5.7380000000
H                18.8680000000       45.1170000000        7.0800000000
O                18.7870000000       40.9520000000        3.7710000000
H                18.5390000000       41.7740000000        4.2160000000
H                18.3270000000       40.9720000000        2.9200000000
O                26.1900000000       49.3770000000        0.2510000000
H                26.7150000000       50.0170000000        0.7410000000
H                25.7960000000       48.7370000000        0.8600000000
O                22.1530000000       44.0550000000        9.9060000000
H                23.1230000000       44.1480000000       10.0780000000
H                21.9060000000       43.1370000000       10.0650000000
O                16.7810000000       46.3680000000        5.3090000000
H                17.4510000000       46.4110000000        4.6220000000
H                16.1010000000       47.0000000000        5.0230000000
O                19.7850000000       43.7630000000        4.2990000000
H                20.5570000000       43.5110000000        3.7830000000
H                19.1550000000       44.0860000000        3.6380000000
O                22.0000000000       45.6650000000        7.5570000000
H                21.9920000000       45.1390000000        8.3750000000
H                21.1210000000       45.5890000000        7.1680000000
O                25.5310000000       52.6050000000       12.9700000000
H                26.3500000000       53.1070000000       13.0170000000
H                24.9580000000       53.1090000000       12.3710000000
O                21.5263692208       52.9282217474       16.6800000000
H                21.3915236295       53.8237811628       17.0000000000
H                20.7160847962       52.7236755395       16.1730000000
O                22.0504186472       56.8565415153       10.2440000000
H                21.5329136774       56.4168864160        9.5410000000
H                22.2352757442       56.1503596310       10.8730000000
O                17.6102320774       48.5991702492        0.7220000000
H                17.8457949458       47.7871633927        0.2520000000
H                16.7572970176       48.4184971083        1.1270000000
O                13.7147264666       48.6063838882        1.8300000000
H                12.8478765962       49.0158119064        1.7210000000
H                13.6499913329       47.6845084289        1.5570000000
O                13.6081850930       46.3209189605        4.7530000000
H                12.7059314119       46.4916681774        4.4270000000
H                13.6370358391       45.3849480024        4.9890000000
O                17.3323865356       43.9204128442        2.4990000000
H                16.9871988060       43.7522955301        3.4040000000
H                16.9457666441       44.7560581395        2.2140000000
O                15.0902316214       45.9999390741        2.2050000000
H                14.6160286125       45.1672827787        2.1340000000
H                14.9073034182       46.3007800162        3.1150000000
N                18.7669890760       41.6356083556       -4.1600000000
C                19.0284672607       41.3547148546       -2.7500000000
C                19.0732472212       42.6911536879       -1.9600000000
O                18.4986601451       42.8143676970       -0.8910000000
C                20.4223375652       40.6964606680       -2.6270000000
C                20.8306092880       40.5973133009       -1.1480000000
C                20.3878614523       39.3301750472       -3.2780000000
H                19.5093293275       41.4718373235       -4.8260000000
H                18.2328078823       40.7348373235       -2.3300000000
H                21.1377674702       41.3392997234       -3.1540000000
H                21.7374617358       40.0065987863       -1.0590000000
H                21.0153918259       41.5792605570       -0.7200000000
H                20.0424639927       40.1284209961       -0.5630000000
H                21.3744933551       38.8732784632       -3.2370000000
H                19.6726994966       38.6828718902       -2.7740000000
H                20.1078262446       39.4052102550       -4.3270000000
N                19.7187867081       43.7370464983       -2.5740000000
C                19.9126166501       44.9713231908       -1.8240000000
C                18.5467271077       45.6411132758       -1.5680000000
O                18.2633033686       46.3100175919       -0.5630000000
C                20.7171868806       45.9577666733       -2.6430000000
C                22.2464699240       45.7529707429       -2.4910000000
C                22.7414819353       46.3135847890       -1.1840000000
O                21.9916339516       46.8263595947       -0.3780000000
N                24.0661887178       46.2851253366       -0.9880000000
H                20.3077757079       43.5828876255       -3.3850000000
H                20.3672281188       44.7719130293       -0.8470000000
H                20.4296113102       45.8598621721       -3.6920000000
H                20.4813246287       46.9762920771       -2.3210000000
H                22.4817796170       44.6914023992       -2.5700000000
H                22.7566877066       46.2692476205       -3.3070000000
H                24.7353475906       45.9821081706       -1.6830000000
H                24.4490219277       46.6620387662       -0.1260000000
N                12.8732465306       53.8478698910        2.5630000000
C                12.7440531406       52.3876394065        2.4830000000
C                11.5262822935       51.9108803856        1.7040000000
O                11.2233042938       50.7036536746        1.6650000000
C                12.7336019259       51.8377414413        3.9190000000
C                14.1867580363       51.8488012268        4.4310000000
C                14.2704067846       51.4479173447        5.9130000000
N                13.9472736857       50.0316002897        6.0020000000
C                13.2992142703       49.4680721234        7.0320000000
N                12.8823841433       50.1800430816        8.0840000000
N                12.9680426956       48.1856781169        6.9400000000
H                12.5727298701       54.3163800155        3.4090000000
H                13.6186613413       51.9907735661        1.9450000000
H                12.1099423625       52.4799514918        4.5360000000
H                12.3429444343       50.8223800651        3.9180000000
H                14.8110252949       51.1815386174        3.8330000000
H                14.5971738582       52.8559401711        4.3250000000
H                15.2798796295       51.6554590885        6.2980000000
H                13.5592786554       52.0396273952        6.4870000000
H                14.4106800736       49.4169568812        5.3360000000
H                13.2492858820       51.0985506287        8.3040000000
H                12.3414176493       49.6610245343        8.7720000000
H                13.3101407718       47.5991468677        6.1820000000
H                12.4829825896       47.7578268652        7.7170000000
N                13.5539233097       48.4789031261       13.4590000000
C                14.4430988430       47.8468059256       14.4800000000
C                14.8737467156       48.8229019300       15.5500000000
O                14.8167474062       48.5036276298       16.7400000000
C                15.6752352099       47.1586831362       13.8710000000
C                15.1803175013       45.9919057531       12.9810000000
C                16.6133241727       46.7118653905       15.0050000000
C                16.3193032331       45.4151245965       12.1140000000
H                13.9679353209       49.1798132876       12.8520000000
H                13.8194894461       47.0849290851       14.9600000000
H                16.2017779648       47.8806843324       13.2370000000
H                14.7682003722       45.1997135593       13.6090000000
H                14.3957067232       46.3448914849       12.3110000000
H                17.3418471842       46.0020265202       14.6280000000
H                17.1571130616       47.5719954065       15.3950000000
H                16.0466781869       46.2773250280       15.8210000000
H                15.9313726376       44.6230400978       11.4770000000
H                16.7311261335       46.1898264092       11.4720000000
H                17.1202896556       45.0057754166       12.7200000000
N                15.3457362210       50.0133921260       15.1610000000
C                15.9617782853       50.9983759710       16.0170000000
C                14.9648463085       52.0971128065       16.3920000000
O                14.2602995950       52.6314235106       15.5320000000
C                17.0760850308       51.6463400726       15.1880000000
C                18.1200879287       52.4280740102       15.9520000000
O                17.7188225569       53.0150860215       16.9780000000
O                19.2636518083       52.3273632691       15.4930000000
H                15.2560374912       50.2687548834       14.1770000000
H                16.3679430035       50.5088780429       16.9050000000
H                17.5870824534       50.8732665741       14.6080000000
H                16.6241856844       52.3230527005       14.4530000000
N                15.1765465550       55.0564372236       14.3200000000
C                14.8188133080       54.9480493829       12.9190000000
C                13.4933399576       54.1458365700       12.9160000000
O                13.4719208677       52.9949355219       12.4900000000
C                15.8581824164       54.1798092794       12.1190000000
C                17.2114955128       54.9138022379       11.9920000000
C                17.1627998660       56.1281455724       11.0740000000
N                18.4446706760       56.8058802006       10.9130000000
C                18.9037204725       57.7267826299       11.7610000000
N                18.1900686412       58.1888638606       12.7740000000
N                20.0422855482       58.3587300710       11.4520000000
H                14.9880460495       54.2409296765       14.8950000000
H                14.6612786058       55.9529074911       12.5180000000
H                16.0444203126       53.2192357809       12.5980000000
H                15.4658273912       53.9913881178       11.1180000000
H                17.5709389953       55.1952278637       12.9850000000
H                17.9514108291       54.2082313168       11.5990000000
H                16.8429185613       55.7921962445       10.0840000000
H                16.4366691594       56.8578408491       11.4410000000
H                19.1059039230       56.3885906211       10.2690000000
H                17.3205861774       57.7688516642       13.0900000000
H                18.5750543731       58.9180490128       13.3500000000
H                20.7228226428       57.8960052468       10.8370000000
H                20.4694962893       58.9367793619       12.1590000000
H                25.3007739932       43.8059495477       14.7095732802
H                13.8294566072       39.7314646532        6.7199998053
H                20.3282298358       39.3618352245        5.8910125260
H                20.8102422960       40.9389452432       12.5483001535
H                19.5505152292       42.9019806017       17.9321516842
H                28.4788681508       40.9583881630        3.2155710281
H                13.2314165730       47.8448525017       12.9076659720
H                14.8785507914       52.3902091082       17.3441804670
H                16.0598091847       55.2128803352       14.3932985659
H                12.6540240357       54.5656603352       13.2613936731
H                18.0827171521       41.1257477032       -4.4460315528
H                17.8117362665       45.5507169769       -2.2400245327
H                13.7381359059       54.0785264182        2.4693841094
H                10.9564864585       52.5705760694        1.2139649898
