 78 
 
N                42.0338175413       27.9081977220       -4.6880089557
C                42.1804871380       28.5826358331       -5.9649344824
C                42.0942186886       27.5474904862       -7.1015776621
O                42.4507330406       26.3888612980       -6.9441490529
C                43.5174987142       29.3279625056       -6.0254727318
C                43.4940758901       30.5872553950       -5.1590497681
C                44.8086194830       31.3655596379       -5.2427290477
C                44.6827138892       32.6778790184       -4.4746505782
N                45.9544028760       33.4519235742       -4.5208782433
H                42.8626059598       27.5277091071       -4.2494242515
H                41.3354246104       29.2733491137       -6.0589377920
H                44.3028608376       28.6470947036       -5.6922440094
H                43.7232779779       29.5976786880       -7.0628946096
H                42.6740909378       31.2233304453       -5.4955289852
H                43.2928983735       30.3051972171       -4.1248732027
H                45.6084592360       30.7537242010       -4.8250538644
H                45.0328294258       31.5633853750       -6.2917434120
H                43.8872549293       33.2835251428       -4.9106468879
H                44.4304674116       32.4741389048       -3.4335168279
H                45.8540945627       34.3349095856       -3.9996782567
H                46.7217099759       32.9043619075       -4.1030626013
H                46.2033156411       33.6695583597       -5.4974971324
N                41.6122871382       28.0170156249       -8.2674016879
C                41.6854346260       27.2527194535       -9.4989438577
C                42.5611735719       28.0608013656      -10.4668279306
O                42.3287549873       29.2594825126      -10.6439732471
C                40.2790147474       27.0229683933      -10.0729974407
C                40.1933385074       25.8343619396      -11.0274732886
C                40.3284950752       24.4939548273      -10.3019615745
C                39.9654436473       23.3270925620      -11.2200436403
N                39.9997719883       22.0583081024      -10.4579127579
H                41.4147627909       28.9992572265       -8.3891001074
H                42.1652430019       26.3038502607       -9.2460781213
H                39.6008102437       26.8588741940       -9.2326814835
H                39.9742043708       27.9339458944      -10.5919423236
H                39.2196149695       25.8744337813      -11.5189579222
H                40.9589005798       25.9282008094      -11.8011788161
H                41.3506225260       24.3672959819       -9.9495008904
H                39.6718580559       24.4774818130       -9.4308937282
H                38.9624003133       23.4804425377      -11.6259139931
H                40.6727292650       23.2791356268      -12.0486885154
H                39.7737563411       21.2539996362      -11.0489903831
H                40.9331563665       21.9285311504      -10.0584759200
H                39.3349591625       22.1006633482       -9.6102949795
N                43.6093703971       27.4237181060      -10.9850146619
C                44.5158266404       28.0236978867      -11.9367652104
C                44.2151266500       27.5450661064      -13.4061185084
O                44.8731703706       28.0993963223      -14.3009902336
C                45.9794436868       27.7305143702      -11.5956992086
C                46.3605748990       26.2576514769      -11.7273138713
C                47.7899996066       26.0156326887      -11.1499413227
O                47.9106013501       26.0880143872       -9.9158580440
O                48.7028116864       25.7635829293      -11.9713377812
O                43.3298772143       26.6727651084      -13.5389614849
H                43.6837741034       26.4197554080      -10.9070592639
H                44.3407521236       29.1041634915      -11.9001272651
H                46.5936788630       28.3139030800      -12.2861957005
H                46.1966296585       28.0566266289      -10.5739607990
H                45.6761514008       25.6310247977      -11.1537763495
H                46.3408893782       25.9486628779      -12.7748758081
N                35.8144317020       21.0246567865      -11.3395694993
C                35.6215014904       21.2865087878       -9.9261832914
C                34.1315726043       21.1002749979       -9.6404997750
O                33.2898554584       21.6168582689      -10.3635580176
C                36.0463190533       22.7200777724       -9.5651009566
C                36.3024606429       22.8665352415       -8.0682372048
C                37.5249514529       22.0314034492       -7.5950248118
O                38.6069099688       22.2296293646       -8.2015361866
O                37.3596628502       21.2422032143       -6.6547198052
H                35.0686040655       21.3748670207      -11.9263342723
H                36.2272422454       20.5684792765       -9.3637564549
H                36.9658815948       22.9521978828      -10.1036019460
H                35.2638045856       23.4156232735       -9.8773310796
H                36.5077279086       23.9126545158       -7.8307983278
H                35.4328043070       22.5642374112       -7.4828904911
H                41.6939822879       28.4812092853       -4.0828893402
H                36.5766271049       21.4152355857      -11.6161673472
H                33.8372768043       20.5525542534       -8.8573063326
