 212 
 
N                16.9585037836       44.3217300744       31.0564196770
C                18.0006679340       43.9049683076       30.1267270271
C                18.2572474763       42.4487749117       30.2296309902
O                18.3770725673       41.7770208650       29.0413279708
C                19.2600610475       44.7007739701       30.5267711432
C                18.6968160580       45.8970859775       31.3412710950
C                17.5155229677       45.2829261797       32.0752269066
H                17.6825465271       44.1693842326       29.1127288867
H                19.9078504412       44.0899082518       31.1637064070
H                19.8393312864       45.0087644469       29.6682759219
H                19.4393974890       46.3268245657       32.0015552429
H                18.3603320424       46.6662936993       30.6441204242
H                17.8339115444       44.7184863784       32.9482534389
H                16.7907822561       46.0385666665       32.3520822445
N                15.4609023245       40.3917084107       28.6995767785
C                15.4087482890       40.6428175275       27.3122452103
C                16.4332113580       39.7948545671       26.4950900600
O                16.1285065948       39.2143958613       25.6409497169
C                15.5955565724       42.1339970842       26.9501617327
C                14.2620719048       42.8644464849       26.8775196757
C                14.4702445208       44.3045730317       26.3622874878
O                14.7675517370       44.4537712464       25.0739241023
O                14.3525963598       45.2313086037       27.1485088126
H                15.6050547361       41.1552397921       29.3481224757
H                14.4454869064       40.2832384717       26.8935564609
H                16.2609466759       42.5569282057       27.6776834757
H                16.1039779741       42.1777566498       25.9705737278
H                13.6082932064       42.3415716574       26.1619816714
H                13.7749679024       42.8902936415       27.8453117628
N                17.7494098150       39.9168106290       26.9643974681
C                18.7365874224       39.1281245193       26.2367453012
C                18.3621981415       37.5921617099       26.1256627208
O                18.4154315651       36.9917734406       25.4222514504
C                20.1382677056       39.2821565194       26.8387593177
C                20.6612732640       40.6992334572       26.6293597767
C                21.6511118017       41.2289337262       27.7331934643
O                21.7813907122       40.6123271683       28.8110920591
O                22.1982538847       42.3202136806       27.4335245216
H                17.9949563928       40.4118236529       27.7959477765
H                18.7688863365       39.4236399573       25.1907127097
H                20.0883124724       39.0774957790       27.9263817010
H                20.7992653326       38.5405523699       26.4184376639
H                21.1537295093       40.7957640369       25.6742667834
H                19.8514612820       41.4219047345       26.6836281061
N                15.5756275329       37.0489429372       23.6851776236
C                16.0622429337       37.2618800817       22.4099432748
C                16.7941916299       36.0632046954       22.1055249552
O                16.4298532380       35.4292174580       20.6480269935
C                17.1206888365       38.4590696971       22.3247338969
C                16.3540607437       39.7853246612       22.5321127554
C                17.8533079714       38.3938804697       20.9867335637
C                17.2646692332       40.9801205338       22.4926873545
H                15.9140972904       37.7490409666       24.4654910870
H                15.2443251239       37.4910533244       21.6890324957
H                17.7958621743       38.3033610117       23.1383242880
H                15.5958517787       39.8826050408       21.7201141420
H                15.8074178407       39.7350116667       23.4538049177
H                18.5371431704       39.2392553281       20.9111073830
H                18.4325707176       37.4849244494       20.9198035810
H                17.1606944811       38.4322118000       20.1542093440
H                16.6958993961       41.8565889738       22.8149358960
H                18.0877693331       40.8539751341       23.2025426634
H                17.6758880467       41.1746030348       21.5166906477
N                12.1006743875       47.6863251015       20.1772225112
C                11.8092333663       46.5032318609       19.3910742442
C                13.0693566361       45.8574531548       18.9217383325
O                13.9893386970       46.5306075503       18.3758255406
C                11.0195436119       46.9048351279       18.1379403783
C                 9.5798308841       47.3280714706       18.4867466789
C                 8.8603170929       47.5926014077       17.1869315177
O                 8.9812459085       46.7729363582       16.2083077714
N                 8.1433668248       48.7226711288       17.0936874234
H                12.3648785069       48.5094139246       19.7546569769
H                11.2355291949       45.8053337137       20.0317833725
H                11.5534447816       47.7518477235       17.7092153350
H                11.0127767917       46.0887590370       17.4340221635
H                 9.0749758537       46.5371526483       19.0289375109
H                 9.5495397178       48.2245610248       19.1089344529
H                 7.8395418294       49.2067621350       17.9291202944
H                 7.6152629077       48.9250004265       16.2510524774
N                13.1459450281       44.5291061912       19.0278911547
C                14.3022683353       43.7894205371       18.4739290306
C                13.6330629398       42.7447989585       17.6112221543
O                12.9224102476       41.8368249708       18.0460288856
C                15.2312099527       43.2660664340       19.6086504719
C                15.6890507552       44.4833096609       20.4789196053
C                17.0499725094       44.3292200685       21.1888492890
N                16.8656052553       44.4044786457       22.5649477976
C                17.8746602089       44.2652390659       23.5758636188
N                19.0887092387       44.2375062466       23.2028489063
N                17.4440257034       44.1047727271       24.7652678633
H                12.5446991437       44.0433794135       19.6695615244
H                14.8328037608       44.5239843693       17.8654975399
H                14.7151122793       42.5543169059       20.2263986126
H                16.0920478861       42.7901452592       19.1377167817
H                15.7450136069       45.3411956936       19.7941924376
H                14.9202573554       44.7173474707       21.1960184329
H                17.5236440605       43.3835434425       20.8621445388
H                17.7123032011       45.1277715866       20.8500428993
H                15.9315910636       44.4216095757       22.9648855273
H                19.4053726284       44.2990571335       22.2342192262
H                19.8760330382       44.1162727717       23.8794699582
H                16.4733360376       44.2623544618       25.0020349805
H                18.1412344382       44.1236824802       25.5499413114
N                13.7331575128       42.9975586522       16.2678662854
C                13.0511431016       42.0707050325       15.2887259049
C                14.0589766672       40.9559810080       15.0052320029
O                15.2482965647       41.1934477308       14.9604825079
C                12.6790870109       42.7950072133       14.0564090457
C                11.2342497382       43.2859591045       14.0282963766
C                11.0068417312       44.0375447003       12.6713427212
C                10.2110953039       42.1147599846       14.0934015004
H                14.4281707842       43.6214085671       15.9192664885
H                12.2153677554       41.6362595876       15.8491759031
H                13.3493180553       43.6316443112       13.8599499515
H                12.8098251289       42.0945623092       13.2206592470
H                11.0397319239       43.9949475166       14.8323101640
H                 9.9802325120       44.4100736428       12.6563953935
H                11.6854282095       44.8803847473       12.6134214156
H                11.1419363904       43.3712908355       11.8572154699
H                 9.2154574654       42.5129757672       13.9893792943
H                10.3735871771       41.4086635968       13.2967885953
H                10.2789229662       41.5898409727       15.0426595700
N                13.5486723572       39.7678810848       14.8558017766
C                14.3602842078       38.5321898290       14.7376303223
C                13.7961376613       37.6492047918       13.6356628733
O                12.5553077526       37.5016324668       13.5031084087
C                14.2952348371       37.7756344339       16.0702838897
C                15.0208486943       38.5733679170       17.1269866604
C                14.8916740747       36.3538018114       15.9619871399
C                14.6794408953       38.1003015157       18.5578699740
H                12.5593199752       39.6205307553       15.0278277835
H                15.3879461363       38.8153391139       14.4907154545
H                13.2390362018       37.6837331008       16.3489284033
H                16.1006132560       38.4852664729       16.9692334862
H                14.7450234898       39.6286402310       17.0591103196
H                14.8874253460       35.8588161011       16.9006955139
H                14.3101589290       35.7508874261       15.2440064376
H                15.8953998457       36.4281877981       15.5513135394
H                15.0731675790       38.8229648962       19.2799967871
H                13.6151000230       38.0186991815       18.6705597824
H                15.1363291125       37.1388424392       18.7678425413
N                19.1207609416       38.9569024747       14.8125873282
C                18.4417713611       40.2301211422       15.0180854680
C                18.6805081238       41.0609992626       13.7975500184
O                19.7905930215       41.1271637221       13.2833559616
C                19.0174650470       41.0053499615       16.2055954440
C                18.7485608146       40.2882555424       17.5320765966
C                19.2165576711       41.2340975916       18.6593938284
O                18.6110399997       42.2973849163       18.8748932792
N                20.2983865791       40.8065234538       19.3368378283
H                20.1337626066       38.9942836497       14.8099043555
H                17.3717840744       40.0207004379       15.1421399741
H                20.0804297960       41.1400280935       16.0465696964
H                18.5658052097       41.9868073516       16.2108925719
H                17.6772919791       40.1227907733       17.6484977765
H                19.2477555701       39.3248430934       17.6036985527
H                20.7777443422       39.9873435891       19.0639783569
H                20.7221381453       41.4437510305       20.0103796066
N                 9.5050647026       39.0576064571       17.5303863397
C                 9.8298836645       40.3710821974       18.0490501722
C                 9.9630697236       40.2439437232       19.6134295407
O                 9.0803366668       39.6291205661       20.2851156631
C                 8.6863841904       41.3368016211       17.7536121334
C                 8.8001777605       42.6990123115       18.5109299117
C                 9.7882329350       43.6077333602       17.8041205716
C                 7.4519940891       43.3581302582       18.5971491676
H                 8.7599798035       38.5140247429       17.9648843737
H                10.7737411603       40.6882532009       17.6428435677
H                 8.6215133972       41.4972497705       16.6999090714
H                 7.7411171826       40.8570769063       18.0657673726
H                 9.1318094206       42.4745711672       19.5346978613
H                 9.9853867759       44.4577702895       18.4457300735
H                10.7360711874       43.0964308380       17.6193549483
H                 9.4023200457       43.9637822466       16.8616259941
H                 7.5448530703       44.3650146477       19.0200594547
H                 7.0123161118       43.4542085101       17.6044710439
H                 6.7502221411       42.7929204927       19.2058403554
N                10.9908516328       40.8071113475       20.1479085760
C                11.1177205436       40.8731938134       21.6640343875
C                11.1615992853       42.3385204935       22.0100586556
O                11.8686819775       43.1271033853       21.3875757489
C                12.3364455488       40.1411323494       22.1192385721
C                12.4055549694       40.2174945544       23.6729502243
C                12.2422296514       38.6566368103       21.7385062316
H                11.7160164246       41.2561994543       19.5886449447
H                10.1967272843       40.3972390962       22.0165392620
H                13.2355350304       40.5783170721       21.7038607298
H                13.2623638455       39.6553229248       24.0321143463
H                12.5129277543       41.2686890662       23.9709204166
H                11.5032891062       39.8404728139       24.1020700460
H                13.0804710668       38.0862376286       22.1356404003
H                11.3332070934       38.2161869376       22.1113084381
H                12.2423387457       38.5427239337       20.6427102699
O                15.8758272960       44.7262895554       15.3029130370
H                16.4902009886       44.5267471636       16.0126468980
H                16.3361737672       44.5986972187       14.4771317093
O                21.8887399300       44.4770350644       24.7034985350
H                22.4965705427       43.6579011389       25.1790571561
H                21.4687821827       44.7358692972       25.2884027978
H                16.2728989193       44.6814638663       30.5975759465
H                18.3323710978       42.0165856688       31.1282793640
H                14.6846350140       40.0235321103       28.9676351200
H                17.9936738011       37.1086591780       26.9196495672
H                14.6775010661       37.1064766380       23.6775145379
H                17.4523715028       35.6984054748       22.7640997676
H                11.3717698356       47.9193191755       20.6509438594
H                14.4144981637       37.1782425637       13.0065167308
H                18.8915093303       38.3848693927       15.4685003193
H                17.9270743752       41.5747703092       13.3872124769
H                 9.2524101795       39.1285982714       16.6694996722
H                10.6061619796       42.6913043805       22.7630745443
