 391 
 
N                75.6754729909       54.2137832704      209.7164923177
C                74.9694188867       55.0884827553      208.7512652537
C                73.8021562842       55.7868980954      209.4946910295
O                73.2686382428       55.2161674616      210.3455283536
C                74.4276570606       54.2759783458      207.5689094576
O                73.6100798975       53.1783283044      207.9495603123
H                76.2283457124       53.4764259377      209.2446388918
H                76.3225125435       54.7666270846      210.3229264884
H                74.9406847512       53.8032889745      210.3140395567
H                75.6770615741       55.8482308532      208.3311857943
H                73.8591712133       54.9574333484      206.8900972674
H                75.3004812949       53.9280999575      206.9499181150
H                73.8637218016       52.3877155518      207.3626521097
N                73.4256143054       56.9663788740      208.9871245427
C                72.1583965976       57.5571937699      209.3495253755
C                71.0770127353       56.5363276017      208.9115175383
O                70.3161898148       56.0628152116      209.7027892314
C                72.0564655834       59.0071570048      208.8766010968
C                70.8269757876       59.7546009721      209.3776693716
C                70.9428838237       61.3003273130      209.2270612618
O                70.9764579149       61.7362915668      208.0236051662
O                70.9440592013       61.9905241878      210.2345859074
H                74.0633362514       57.5437422339      208.3660548968
H                72.0980016877       57.5865557286      210.4572905464
H                72.9386319791       59.5335582371      209.2675421554
H                72.1048371388       59.0539737786      207.7726968720
H                69.9378782336       59.4532852032      208.7885511450
H                70.6548487057       59.5324394094      210.4163609349
N                71.1470255368       56.1228929533      207.6478122561
C                70.2752834731       55.1283964483      206.9488463415
C                69.6980712734       53.9641375267      207.7763316900
O                68.4952814183       53.7471615288      207.8207197003
C                71.0492224931       54.5528975058      205.7541774907
C                70.1539798127       53.8728029927      204.7231975079
C                69.7052993877       52.5665015851      204.8874028101
C                69.7088250197       54.5981222935      203.6138037497
C                68.8241882479       52.0088307961      203.9785976879
C                68.8102337778       54.0598955988      202.7352358055
C                68.3598051748       52.7506119867      202.9148273704
H                71.7646682901       56.6094031619      207.0063639277
H                69.3849594937       55.6599430275      206.5446269523
H                71.5998054648       55.3650110785      205.2348244366
H                71.7930700002       53.8204928748      206.1148593554
H                70.0234746274       51.9630004661      205.7415166324
H                70.0974842130       55.5973346484      203.4464816886
H                68.5039122405       50.9819063189      204.1205082328
H                68.4954086917       54.6234777490      201.8615519178
H                67.6437925609       52.3316905595      202.2281476223
N                70.5696185266       53.1629647259      208.3366232606
C                70.0295814178       51.9655373449      208.9779957565
C                69.1545053175       52.3643277663      210.1973525796
O                68.2436635293       51.6770012864      210.5961129508
C                71.1717846032       50.9897139535      209.2721030994
C                71.3069125967       50.1082946872      208.0407152493
C                69.9252591050       49.3968647535      207.8091561896
O                69.2891987143       49.0775843832      208.8110767755
O                69.6344305289       49.2401554683      206.6710561288
H                71.5699139549       53.2709253820      208.2956603435
H                69.3347834744       51.4831495154      208.2934858916
H                72.0768685013       51.5382531068      209.5353904121
H                70.8844549199       50.3502470484      210.1101539733
H                71.5302436549       50.6942826779      207.1482493273
H                72.0668062379       49.3463124530      208.1787606146
N                69.5303123453       53.5062671374      210.7896898607
C                68.9166151875       54.0354910687      211.9490444502
C                67.5960853874       54.7667130281      211.6973523738
O                66.6770111247       54.6063554849      212.5074619533
C                69.8127402934       55.0132741670      212.6987148592
H                70.2296786143       54.1231042759      210.3260644303
H                68.6826792995       53.1836845813      212.6154782497
H                69.2610682547       55.3779321317      213.5759079910
H                70.7352309433       54.5511470459      213.0307860609
H                70.0590326943       55.8775865835      212.0812713095
N                67.5494643942       55.5282022084      210.6789724364
C                66.3403930252       56.1968384838      210.2221359309
C                65.2719096133       55.0985142170      209.9657081751
O                64.1740009096       55.1966418927      210.3845856813
C                66.6296836530       57.1449785346      209.0064190654
C                65.2974545596       57.5742975493      208.3674796266
C                67.3537064318       58.3828311949      209.4901709571
H                68.3955462843       55.6663198098      210.1195331032
H                65.9256224013       56.8197658442      210.9969853055
H                67.2408263551       56.5876053573      208.2763514979
H                65.4750344956       58.2165710928      207.5374905460
H                64.7568421630       56.6778232336      208.0357043967
H                64.7103828068       58.0574976140      209.1135235741
H                67.5205798506       59.0715191110      208.6686557098
H                66.7406049874       58.8848856907      210.2285404593
H                68.2985666308       58.1296719261      209.9550633921
N                65.7323761946       53.9627762576      209.3694683340
C                64.8090459872       52.8636231199      209.2294416472
C                64.2399282066       52.4136762377      210.6060050114
O                63.0563376262       52.1735696370      210.7064433805
C                65.3716329687       51.6274059918      208.5132349538
C                65.8246691825       52.0061714152      207.0990651739
C                64.2525846745       50.5766507037      208.4827817235
C                66.5134672656       50.8580047505      206.3821461222
H                66.6520271694       53.9268524975      208.9297879495
H                63.9443826829       53.2141051727      208.6625537021
H                66.2277949075       51.2353345587      209.0458309417
H                64.9750523300       52.3278813076      206.5120605604
H                66.5347906155       52.8376508007      207.1575977853
H                64.5613116496       49.7167813351      207.9124215686
H                64.0388226523       50.2403729933      209.5094475299
H                63.3437549950       50.9834528463      208.0596062651
H                66.8634116115       51.1944803854      205.4086269370
H                67.3825620403       50.4966972459      206.9333990694
H                65.8418770408       50.0235949413      206.2261488589
N                65.1010956410       52.2570126088      211.5874907317
C                64.6533407881       51.8918862288      212.9012847900
C                63.6085269201       52.9129319261      213.4266849643
O                62.5271915444       52.5447364064      213.8668983761
C                65.8669688888       51.6795800579      213.9653406301
C                65.9143568067       50.2875710266      214.7095955457
C                66.9876929790       50.1491735310      215.7602271845
C                68.1131506223       49.0979217193      215.5315601708
N                68.8391497931       49.1355764143      214.2290965544
H                66.1135942575       52.4432727084      211.4337699316
H                64.1222047228       50.9323010596      212.8160759909
H                66.7820825808       51.8156167002      213.3649903899
H                65.7918775156       52.4336709045      214.6742377791
H                64.9052077171       50.1104101272      215.1037577891
H                66.0440650563       49.5120284325      213.9046299619
H                67.4447083932       51.1207282850      215.9346463226
H                66.5155575896       49.8546595871      216.7301805070
H                68.8988270336       49.2446882773      216.3236453941
H                67.7183423514       48.0800915231      215.6522235261
H                69.5380554443       48.3409187907      214.1424189040
H                68.1806561950       49.0245820359      213.4059641293
H                69.3635087587       50.0086782968      214.0670747896
N                63.9043625138       54.1636336767      213.3259308397
C                63.0508593902       55.1480830041      213.9424644539
C                61.6671806255       55.1536229421      213.3389326416
O                60.6840467511       55.2093835473      213.9881323116
C                63.6136609655       56.5610277800      213.8556524691
C                62.6079332418       57.5347657247      214.4686098376
C                64.9640749228       56.6793411066      214.5711554249
H                64.8244145346       54.4791066878      212.9980097037
H                62.9430430676       54.8925017616      215.0400804018
H                63.7696157484       56.7985206829      212.8006447610
H                63.0517888370       58.5206039456      214.5194425380
H                61.7008333870       57.5956612615      213.8743386125
H                62.3528038407       57.2213974111      215.4730422918
H                65.3424773793       57.6717571684      214.4660664237
H                64.8401302865       56.4542056870      215.6340285411
H                65.6917308056       55.9757940544      214.1584264222
N                61.6607636268       55.1157874030      212.0695639314
C                60.3983572641       55.2476250366      211.2962391714
C                59.5416647984       54.0279939672      211.5574717639
O                58.3174182034       54.0802204481      211.7408652118
C                60.7704188877       55.4310687005      209.7937676453
C                61.2259219522       56.8957936854      209.6211585327
C                59.6530860782       55.0622090310      208.8489193798
C                61.7334326760       57.0518468222      208.2225359064
H                62.5362720858       55.1467237353      211.5022395339
H                59.8673363708       56.1337127743      211.6291295631
H                61.6450819706       54.7952447829      209.6032367882
H                60.4139680415       57.5736541940      209.8442429263
H                62.0556468544       57.0883620105      210.3498454939
H                60.0329842458       55.0272526001      207.8166839527
H                59.2824298687       54.0695473118      209.0848610666
H                58.8491263522       55.7653785819      208.8969289289
H                62.2730946911       57.9366642052      208.0792037777
H                62.3881182719       56.1883086907      207.9728551600
H                60.8854966031       57.0135340306      207.5283321658
N                63.2251552933       50.6844210486      203.8203053281
C                64.5388871828       50.8082265248      203.2342676605
C                64.4741756589       51.0139600438      201.6861374003
O                65.1817776972       51.8347840620      201.1154088063
H                63.0201254791       49.8827376612      204.3533679866
H                65.0972853962       51.6657112246      203.6355624722
H                65.0960793215       49.8955766659      203.4264354792
N                63.2830475168       54.5236678517      201.2361395364
C                64.4256060752       55.3324417421      201.6261611067
C                65.5101370504       55.3006825268      200.5659215528
O                66.1203459448       56.3443577991      200.3220415347
C                65.0770503593       54.9623462978      202.9867531275
C                64.4487049467       55.7577560876      204.1304284311
C                65.0983918588       55.3044759908      205.3995190971
C                64.6703209604       57.2458109665      203.8882429349
H                62.9782244267       53.7913713536      201.9485090281
H                64.1193976102       56.3802820429      201.6640550423
H                64.8752251693       53.8840779531      203.1416720397
H                66.1060090902       55.1433988158      202.9601352004
H                63.3548787031       55.5531273853      204.1783483029
H                64.6177841824       55.7492824710      206.2580140104
H                65.0631487142       54.2255446386      205.4955431843
H                66.1496433659       55.6112576403      205.4072589378
H                64.4926691313       57.7938973202      204.8167858575
H                65.6544789427       57.4542918785      203.5521975091
H                63.9565820131       57.6636492874      203.1624288548
N                65.7496503419       54.1411130342      199.9576526488
C                66.8929466086       53.9690465121      199.0886683025
C                66.6513613695       54.6328048661      197.7146288900
O                67.4418688998       55.4218574579      197.2836050897
C                67.2794204478       52.4881258682      199.0412726747
O                68.5874771073       52.4026546152      198.5220259509
H                65.2823873598       53.3024154450      200.3049943004
H                67.7456333659       54.5104857200      199.5330237251
H                67.2270586007       52.0804694518      200.0607735622
H                66.5749595017       51.9457358481      198.4074840443
H                68.9990747367       51.5581371101      198.8322879089
N                67.0456623353       58.1566186507      198.0343230806
C                68.4236253056       58.6494901605      198.0616943478
C                68.8348458819       58.8010308461      196.5820201981
O                69.3617142624       59.8433970347      196.1505072759
C                69.4346676883       57.6342079832      198.6570752502
C                69.4557204900       57.5129579558      200.1669040761
C                69.9705466657       58.7162877045      200.9480542402
O                69.2741147260       59.2652814944      201.8700291697
N                71.2679454823       59.0780814757      200.7181567128
H                66.7874421772       57.4259369510      198.6718550913
H                68.5007756793       59.6301943055      198.5402093994
H                69.1830302055       56.6677836421      198.2497870901
H                70.4172107139       57.9429974772      198.2830314785
H                68.4487373578       57.3075531327      200.5436018919
H                70.1138884337       56.6866763035      200.4310902932
H                71.6630010618       58.8336216972      199.8461120787
H                71.5229738418       59.9870558086      201.0757690487
N                70.2913906840       63.0310140107      202.8558621564
C                70.6848555364       62.4705422256      204.1281875237
C                69.3560633483       61.8514801458      204.5797283158
O                68.2860626379       62.4600898361      204.4130389723
C                71.2777023872       63.6111459271      205.0461613758
O                71.5111905071       64.8326125039      204.4571091646
H                69.5911013406       63.7319619874      202.9396987822
H                71.4314109241       61.6971318601      203.9478470786
H                70.6285843528       63.7407400858      205.9129629447
H                72.2624535158       63.2878984100      205.3931022517
H                70.6562344626       65.3365918185      204.3122051181
N                69.3125077960       60.5895700554      205.0130902777
C                67.9915739784       60.0656344610      205.2520353596
C                67.1786429135       60.8258431397      206.3372850382
O                65.9432903313       60.9199658089      206.1874702583
C                68.1571284722       58.5744189291      205.5415415314
C                69.6676072657       58.3040815180      205.3676664729
C                70.3721528098       59.6494641007      205.2588459688
H                67.3963817547       60.2205958016      204.3287332311
H                67.8021301487       58.3540342923      206.5564788826
H                67.5531159955       57.9880993850      204.8476742815
H                70.0296186525       57.7532889280      206.2275264574
H                69.8137624424       57.7355484250      204.4679690287
H                70.8844406581       59.9519706070      206.1699657365
H                71.0563644857       59.6719886235      204.4196735958
N                67.7913938394       61.2602568612      207.4630756125
C                67.0904363942       62.2385147624      208.3124210616
C                66.2506075622       63.3293110546      207.6222890966
O                65.2565404187       63.8005716711      208.2367711299
C                68.0750041736       63.1004477160      209.1784542846
O                68.7222423393       64.1162523174      208.4679637709
H                68.7768981147       61.4842649956      207.3989334518
H                66.4115700761       61.6875342343      209.0064893374
H                67.4734054369       63.5138032662      209.9889055904
H                68.8712363230       62.4651584878      209.5466590226
H                68.2458996031       64.9942764303      208.5188416175
N                62.5292178974       63.5925814686      207.6499061193
C                61.6829392355       63.9605583304      208.7854295454
C                61.1555210962       65.3689063176      208.6565816596
O                60.0117010349       65.6977282243      209.2147450704
C                62.4565722025       63.9327536240      210.0835175243
C                63.0185998857       62.6058932744      210.5031768108
C                62.3567611309       61.3963946144      210.3933109035
C                64.2907061528       62.6020283485      211.0371619935
C                62.9589753504       60.2205135258      210.7827495608
C                64.8976793093       61.4211815410      211.4366935295
C                64.2363408001       60.2254815016      211.2993197356
O                64.8665850797       59.0580375006      211.6390230594
H                63.4694405999       63.7542536420      207.7190759280
H                60.8149000182       63.2462359726      208.7985888670
H                63.2679961104       64.6695181373      209.9812150702
H                61.7796324076       64.3110138053      210.8616377957
H                61.3533215302       61.3684505626      209.9768520732
H                64.8276135208       63.5302277724      211.1218049919
H                62.4242001132       59.2624828598      210.6728979066
H                65.9151424407       61.4552915970      211.8323636475
H                65.6210708067       59.2273805200      212.2308256282
O                66.8727445201       59.3691127424      213.5474842380
H                67.8237405313       59.1654343411      213.5595437774
H                66.6692240452       59.7985572869      214.3930671346
N                72.8802419536       68.5501711383      208.0204967430
C                73.1107388357       67.1099052053      207.9869774299
C                74.2587241840       66.9060746406      206.9720398240
O                74.2350117163       67.5304959557      206.0086110838
C                71.8339941438       66.4064038539      207.4553801355
O                70.7475759984       66.7064364036      208.3880345251
H                72.0417807607       68.8879325425      207.5532970896
H                73.2989930948       66.7799522625      208.9886626248
H                71.5891312102       66.7333164816      206.4340296623
H                71.9894651163       65.3106790088      207.4475718869
H                69.8633299579       66.4423597151      207.9797673409
N                67.4007577247       53.9783147857      219.9980565555
C                68.5930698484       54.7995588448      220.0339846971
C                68.1841062959       56.1786588873      220.4596282067
O                67.6456307135       56.9435343019      219.6668888950
C                69.4281656756       54.9843017531      218.7357241268
C                70.7538799967       55.6210733581      219.1159573491
C                69.5982448424       53.6757112644      217.9560188108
H                66.7319817230       54.1905611460      219.2109176157
H                69.2003691781       54.3223126930      220.7908115789
H                68.8964836521       55.6578532503      218.0900350038
H                71.3850191524       55.7960343353      218.2530055577
H                70.5835873841       56.5753199644      219.6227352625
H                71.3265503422       54.9862906599      219.8203543483
H                70.1690724516       53.8440056674      217.0483056906
H                70.1172130294       52.9134672194      218.5525091638
H                68.6139735745       53.2662221923      217.6914979467
N                68.9168096141       59.3124020241      217.9362164899
C                68.1817789385       59.1705301009      216.7237641483
C                66.6957401245       59.5135111905      216.9995347741
O                66.0555246983       60.2125849149      216.2169502692
C                68.2240297447       57.7707091058      216.1141398500
C                69.6032665116       57.3544038715      215.6138540379
C                70.3477432183       58.4386632290      214.7739444331
O                69.8404465037       58.7772255348      213.6502708952
O                71.3650761492       58.8899519383      215.3258829380
H                69.3851545784       58.5279469317      218.3452466704
H                68.5594707966       59.8999407791      216.0070859094
H                67.8632101652       57.0416823953      216.8326127546
H                67.5188572239       57.7588500709      215.2609943624
H                70.2618877984       57.1091218989      216.4213953095
H                69.4892664357       56.4552681311      214.9717733756
N                66.5302855723       63.2745110185      217.1272066409
C                66.6764764322       63.8837951738      215.8135770841
C                65.3434937786       63.8557527944      215.0538886550
O                64.9407914790       64.7286496154      214.3571117422
C                67.7518999535       63.0774688148      215.1362359704
C                68.2145716438       63.6259776899      213.7627634159
C                68.9158065940       62.5246877138      212.9404599037
C                70.2852151553       62.1422289251      213.5431033497
N                70.8757961097       61.0104427872      212.7784256002
H                67.0873047843       62.5049720867      217.4007493994
H                66.9646603404       64.9349778648      215.9238210738
H                68.6115092766       63.0238817861      215.7819244830
H                67.3704438969       62.0769177498      214.9659915857
H                67.3689800830       63.9851455200      213.1998561461
H                68.9107000350       64.4595889049      213.9019550088
H                68.2859458813       61.6324978459      212.9116502671
H                69.0871097618       62.8646039526      211.9318701875
H                70.9535151022       63.0001979351      213.4711654715
H                70.1886186369       61.8631589842      214.5879928399
H                71.8309164516       60.9018546520      213.0775140491
H                70.3862513861       60.0496171280      213.0741315199
H                70.8459245826       61.2434603082      211.7825401727
N                64.6544112407       62.7771033106      215.2773310562
C                63.3745350262       62.6026570521      214.6312917269
C                62.4320582254       63.7035900893      215.1735757099
O                61.7697840463       64.3478195909      214.4807575337
C                62.8694680648       61.1769628975      214.8324641245
C                61.3792904370       61.1202086517      214.6158755644
C                60.8283813495       60.6782026539      213.4377264081
C                60.4899191922       61.4958262665      215.6285066369
C                59.4847940439       60.5184775130      213.2711224167
C                59.1311644481       61.3426764720      215.4536764480
C                58.5919039131       60.8427379464      214.3377973849
H                65.0417942124       61.9612415140      215.7950746695
H                63.4590430399       62.8211842163      213.5624226436
H                63.3866197175       60.5419788279      214.1033026693
H                63.1146546469       60.8526520233      215.8319529247
H                61.4903392097       60.4234712068      212.6286752278
H                60.8842653903       61.8170553251      216.5737350934
H                59.1195157946       60.1536991916      212.3466731174
H                58.5031562384       61.5870582863      216.2863615967
H                57.5304526449       60.6639658817      214.2115883126
N                75.2657939617       63.2990217382      212.4076571558
C                75.1134608450       62.0316458531      211.7105502844
C                74.2112718861       60.9204806202      212.4562509650
O                73.8253577351       61.1356473555      213.5611042997
O                73.9725535360       59.9253597699      211.7586817199
H                74.4940538774       63.9662248787      212.2604298386
H                74.6076880586       62.2344550854      210.7325434827
H                76.0807202909       61.5880110756      211.5159420905
H                59.9602555206       53.1203629913      211.5889013481
H                63.0796029857       51.3741169265      204.3798892109
H                63.8431218706       50.4679247444      201.1351232733
H                62.5710514651       55.0564844415      201.0976906147
H                65.8346278780       54.4033632256      197.1851924561
H                66.4809992643       58.8328883958      198.2182112209
H                68.6800041605       58.0496585493      195.9405658250
H                71.0066891990       63.4059206753      202.4586304517
H                66.4990098588       63.6476212361      206.7074257585
H                62.4552549427       62.7092978382      207.4938948710
H                61.6763663166       66.0531266516      208.1461281446
H                72.8114672540       68.8236026955      208.8751927264
H                74.9869465620       66.2488108869      207.1661957565
H                67.6340908320       53.1136653430      219.9089667005
H                68.3499778355       56.4821277693      221.3979209489
H                69.5756918368       59.9142617585      217.8194300315
H                66.2465072800       59.1650333388      217.8221847838
H                66.6989682600       63.8882554794      217.7634957950
H                62.3809354717       63.8782414181      216.1568779917
H                75.3156813014       63.1503337823      213.2938868918
