 166 
 
N                55.6199172112       54.6735828902      196.5964159362
C                54.4392981956       55.4330559182      196.9175730863
C                53.5693446000       54.8086553646      198.0067226688
O                53.1492544743       55.5870238993      198.8841804751
C                53.6345638229       55.6596687871      195.6480257289
C                52.5256566603       56.6930415092      195.7692878956
C                53.0206050313       58.1012042245      196.0366923918
C                51.7898420333       56.7029644899      194.4441600948
H                55.7557376490       54.3746115400      195.6346866034
H                54.7368432606       56.4035767931      197.3428090416
H                54.3062066245       55.9938197071      194.8497437984
H                53.1906985764       54.7064698154      195.3430076547
H                51.8179812998       56.4014650183      196.5631484523
H                52.1684171609       58.7819463880      196.0462990535
H                53.5206929176       58.1791239631      196.9993563513
H                53.6884532681       58.4187641308      195.2395751155
H                50.9608323989       57.4139498735      194.4401627317
H                52.4667846272       56.9731641489      193.6347934688
H                51.3546662815       55.7273631233      194.2181618538
N                53.2981270014       53.4874826717      198.0141666460
C                52.3303214338       52.9398536133      198.9763718273
C                52.9000048391       53.0649180966      200.4403178349
O                52.1964956965       53.4212486636      201.3946745622
C                51.9936051350       51.4890166836      198.6090372102
C                50.9414892472       51.3758728457      197.4882950014
C                50.9762519760       50.0204630563      196.7319735665
C                49.5581940096       49.4634696087      196.5661818846
N                49.4757098471       48.2391001631      195.7102755454
H                53.4555315311       52.9397368083      197.1732232349
H                51.4112334572       53.5566664332      198.9722140352
H                52.9344129262       51.0184508362      198.3157075262
H                51.6092633899       50.9982326727      199.5057637255
H                49.9530737440       51.5573441137      197.9238461622
H                51.0914560876       52.2020465889      196.7837695338
H                51.4571973090       50.1923145560      195.7676128862
H                51.5781427284       49.3256075323      197.3192701008
H                49.1384389443       49.2435672289      197.5481052242
H                48.9141382960       50.2335596160      196.1396843564
H                48.4635528789       48.0405620657      195.5785985604
H                49.8796463421       48.4242435093      194.7812999060
H                49.9534451038       47.4427837786      196.1644556096
N                54.1922220690       52.7126411102      200.5187993494
C                55.0399410367       52.7515731494      201.6956954282
C                55.0480388697       54.1998546271      202.2640004996
O                54.8227702454       54.4846286409      203.4420244840
C                56.5196831561       52.3551280460      201.4407849637
O                56.6888533463       51.0417669597      200.9233726656
C                57.2489463640       52.4260249518      202.7756525688
H                54.6191619098       52.3895076723      199.6538529022
H                54.6307568628       52.0876793538      202.4700932556
H                56.9381367834       53.0811478915      200.7262205686
H                57.6367542696       50.8585356104      200.9332909244
H                58.3056118417       52.2095765228      202.6309707737
H                57.1509752741       53.4053430960      203.2333868010
H                56.8353246499       51.6747504440      203.4452675021
N                55.3591052195       55.1249025270      201.3645061787
C                55.4343735015       56.5036761285      201.7782880605
C                54.1205484796       57.0055050051      202.3268899350
O                54.1045277958       57.8559683608      203.2072805930
C                55.7676402567       57.4380158057      200.6285180095
C                55.5146361204       58.8759193203      200.9487655806
C                54.7782178772       59.7399502892      200.1812169526
C                56.1698286583       59.6770158737      201.9290544751
N                54.9918790919       61.0347332453      200.5619672876
C                55.8032229068       61.0216319770      201.6617085508
C                57.0947425941       59.4139586764      202.9323008512
C                56.2570621168       62.0804262574      202.4410994986
C                57.5657652064       60.4725310846      203.6793449923
C                57.1207170366       61.7859232996      203.4708878947
H                55.4353136263       54.8840009297      200.3858335282
H                56.1803931835       56.5868749004      202.5768229105
H                56.8177723352       57.3099796871      200.3497752417
H                55.1486560729       57.1543242993      199.7722341973
H                54.1286656557       59.5118845566      199.3568040096
H                54.4662297081       61.8302375814      200.2248490796
H                57.4410177589       58.4064152719      203.1104754664
H                55.9468410346       63.0895335387      202.2150372374
H                58.2844980355       60.2965274140      204.4648545109
H                57.4926701887       62.5683819524      204.1154365889
N                53.0269485734       56.4815605157      201.7532311272
C                51.7191589590       56.9165298080      202.1869163708
C                51.4555319106       56.5885553968      203.6727679095
O                51.0792327980       57.4671747655      204.4530406787
H                53.0935051340       55.9693375050      200.8840370584
H                51.6078284506       58.0024212151      202.0778516982
H                50.9590175205       56.4157704676      201.5814619463
N                51.6653276165       55.2994981377      204.0108492979
C                51.7801442284       54.8314398119      205.3827110505
C                52.7110282141       55.7185107728      206.2308830078
O                52.3455873363       56.2316076823      207.2936436802
C                52.3471381893       53.4324067492      205.4207480040
C                51.3582337756       52.3932448112      204.9537506663
C                52.0429788038       51.0488552546      205.0472224178
C                50.1149171491       52.3044508014      205.8022769915
H                51.9838761591       54.6606039903      203.2891000297
H                50.8042666890       54.8802641419      205.8784608342
H                53.2430612784       53.4018211212      204.7984547793
H                52.6344427189       53.2227324854      206.4550989671
H                51.0782947673       52.6057483862      203.9171946412
H                51.3750077156       50.2516597544      204.7311310769
H                52.9268054644       51.0171021415      204.4127786229
H                52.3439026484       50.8550209513      206.0702375903
H                49.4230226845       51.5912646463      205.3631666377
H                50.3655781994       51.9620043324      206.8060799563
H                49.5924098429       53.2508517220      205.9088691414
N                53.9645552208       55.8467771229      205.7436614804
C                54.9312964603       56.5095668193      206.5945680799
C                54.4802916212       57.9147078289      206.9507927764
O                54.5543487408       58.3301465630      208.1110582794
C                56.3130674021       56.5610263088      205.9726530822
C                57.1982033618       57.4764533209      206.8082317496
C                56.8354751267       55.1413732622      205.9545925842
H                54.2523176286       55.4424292126      204.8627455814
H                54.9810927126       55.9627774381      207.5469704065
H                56.2358471759       56.9672950449      204.9582807686
H                58.2399618947       57.3878591422      206.5125618373
H                56.9081792469       58.5193262455      206.7037361337
H                57.1216015875       57.2197714854      207.8635385156
H                57.8297750302       55.1049031819      205.5176979627
H                56.8900622991       54.7620903919      206.9716324714
H                56.1767978688       54.5004112896      205.3786391842
N                54.0895743839       58.6492305297      205.8991075853
C                53.7275857671       60.0568307008      206.0294963410
C                52.5912502717       60.1484091251      207.0284582739
O                52.5454848358       61.0348924309      207.8786535757
C                53.3635142250       60.7661175294      204.7222112450
C                52.9216449047       62.2391492871      204.8952379509
C                53.9303139476       63.1498569109      205.5739438732
C                52.7795064841       62.8642097506      203.5215992606
H                54.0513358453       58.2201932570      204.9845071193
H                54.5853784683       60.5821251025      206.4755958899
H                54.2338555283       60.7229219232      204.0655625039
H                52.5624424917       60.2104662283      204.2299932906
H                51.9742836410       62.2335095048      205.4364786289
H                53.5931147908       64.1823833819      205.5352503183
H                54.1011845701       62.8972536537      206.6168570013
H                54.8824466170       63.0918551984      205.0503181480
H                52.5071991758       63.9144113949      203.5857625690
H                53.7290199631       62.7991724447      202.9977607541
H                52.0442588465       62.3502904685      202.9034433777
N                51.7089486007       59.1560933201      206.9162923636
C                50.5957781522       59.0213872919      207.8252162708
C                50.9757647840       59.2932111617      209.2968091490
O                50.4011356108       60.1355941461      209.9926223429
H                51.7329813724       58.5080838043      206.1335232621
H                49.7960990529       59.7193300475      207.5539704037
H                50.2261006946       57.9983516410      207.7593225513
N                48.0093988978       56.7291836645      198.3532535157
C                48.6377317826       56.8975149135      199.6312043075
C                47.7269468855       56.4925179698      200.7688413481
O                48.0595302553       55.5620111063      201.4971677293
C                49.0712300711       58.3130476118      199.8085936937
C                50.2471461253       58.4935646264      198.8857881595
S                51.0969895834       59.9487065103      199.4033158444
C                49.6736229115       61.0573814214      199.0547108174
H                47.6927197407       57.5362413241      197.8293839188
H                49.5065448260       56.2203356364      199.6828755433
H                48.2489868467       58.9725718792      199.5378525598
H                49.3831067151       58.5030916894      200.8378223962
H                50.9555576945       57.6589121848      198.9595226210
H                49.9608548014       58.5773925945      197.8297674456
H                50.0677571639       62.0631056440      199.1004518517
H                49.3337256011       60.8273121832      198.0463015999
H                48.9034386966       60.9061318723      199.7973420448
H                56.3519714519       55.1591990492      196.7920521668
H                51.7165461253       58.7761476724      209.7256312012
