 418 
 
N                29.8320574540       11.6595299128       10.8937714009
C                30.2495236278       12.3545819656       12.0923271502
C                29.1252540234       12.3129694203       13.1264312179
O                29.3366050478       11.9883595979       14.2944973926
C                30.6718872371       13.7849931885       11.7622014157
C                31.3326420900       14.4579116731       12.9605935932
C                32.6431469518       13.7892063769       13.3438015963
O                33.2345217105       12.9959899055       12.6167457527
N                33.1123402633       14.1475880015       14.5429209449
H                29.8732359692       12.1574734781       10.0082678976
H                31.0974050716       11.8147899621       12.5353690554
H                31.3845600863       13.7374190497       10.9374358811
H                29.8007191732       14.3587594010       11.4488880044
H                31.5442538290       15.5011942256       12.7246769720
H                30.6700617793       14.4386924593       13.8259634284
H                32.6542780018       14.8553025025       15.1087143565
H                33.9840464183       13.7605558934       14.8697596513
N                27.9209483594       12.6632188666       12.6789549846
C                26.7641422014       12.5937832701       13.5465748540
C                26.6991183476       11.2349435793       14.2418648196
O                26.5685093502       11.1464302160       15.4595459419
C                25.4681862069       12.7973822368       12.7653438077
C                25.1925843144       14.2556774588       12.3886610218
C                24.0196940649       14.3192789159       11.4149820628
C                24.8821991064       15.0876709224       13.6281287851
H                27.7831257980       12.9477404262       11.7136245690
H                26.8623109353       13.3386757673       14.3468132720
H                25.5250406050       12.1798341376       11.8683781861
H                24.6436314576       12.4224746107       13.3770105191
H                26.0788549928       14.6650248835       11.8961158881
H                23.8352186660       15.3459694808       11.1096982464
H                24.2251070146       13.7211134199       10.5308731108
H                23.1179414939       13.9397107780       11.8878570816
H                24.4899317584       16.0540879315       13.3346054291
H                24.1341018060       14.5941237417       14.2459557951
H                25.7726313066       15.2468902319       14.2291378923
N                26.7209266456       10.1791518071       13.4294194530
C                26.6334411933        8.8288004416       13.9478994365
C                27.6353250566        8.6562368312       15.0874654226
O                27.3031392403        8.2326717347       16.1893345020
C                26.8792820839        7.8131845028       12.8321130390
C                25.6886483358        7.7335932901       11.8835970764
C                26.0064479806        7.1378288768       10.5007646669
O                27.1745817479        7.2002400075       10.0725665920
O                25.0412682269        6.6886436202        9.8410194603
H                26.8490743604       10.3031514391       12.4299283159
H                25.6412343703        8.6658683579       14.3943123059
H                27.7668714418        8.1151863799       12.2726664144
H                27.0811456188        6.8383466478       13.2782351009
H                24.8592085411        7.1781037832       12.3244774414
H                25.3379984179        8.7473480001       11.6620530222
N                28.8747024875        9.0252470501       14.7733168775
C                29.9932119155        8.8137979123       15.6643150922
C                29.7191625995        9.4654687683       17.0162098468
O                29.8943271341        8.8813346423       18.0868481505
C                31.2700194299        9.4120761849       15.0284845618
O                31.5625832063        8.8105383354       13.7922318287
C                32.4721482741        9.2105560162       15.9429583743
H                29.0591424436        9.3393997288       13.8278121726
H                30.1225415295        7.7347478787       15.8260183138
H                31.0885835149       10.4892424102       14.8835397841
H                30.8562501316        9.0081417897       13.1553522867
H                33.3655902812        9.5785155263       15.4480924012
H                32.3283124556        9.7450833378       16.8760525660
H                32.5984039050        8.1518185419       16.1534953970
N                29.3494322332       10.7419178371       16.9566328533
C                29.1620726152       11.5313663854       18.1611937470
C                27.9762233528       10.9979182561       18.9689748355
O                28.0605098651       10.7865886286       20.1738669682
C                28.9863474481       13.0171222620       17.8037701431
C                28.6622371409       13.8310755232       19.0556928729
C                30.2542693380       13.5523049110       17.1390952869
H                29.1739766423       11.1841085902       16.0600960696
H                30.0479468546       11.3947074023       18.7950248503
H                28.1556991000       13.0811711842       17.0941824489
H                28.5222269346       14.8723497967       18.7832499614
H                27.7544371227       13.4711163249       19.5314090399
H                29.4773381203       13.7486235053       19.7680667104
H                30.1377876563       14.6081216232       16.9111408476
H                31.1078349124       13.4276916759       17.7991847135
H                30.4585360855       13.0271023003       16.2102572623
N                26.8450501431       10.8485381397       18.2782744844
C                25.6491160695       10.3411794769       18.9196904968
C                25.9414253258        9.0364671853       19.6546149905
O                25.5550313197        8.8606491939       20.8060098494
C                24.5364678272       10.1620620676       17.8895276833
C                23.2173857675        9.6465574376       18.4817825848
C                22.7154811484       10.5325416390       19.6200004456
C                22.1692823403        9.5733332571       17.3731345882
H                26.8350481912       10.9272427925       17.2679388779
H                25.3405951323       11.0624180411       19.6876209953
H                24.3678349013       11.1282810016       17.4105913561
H                24.8874054806        9.4656289424       17.1240174209
H                23.3815924535        8.6356492208       18.8722196445
H                21.6999269962       10.2486765529       19.8848964665
H                23.3342995632       10.4164143009       20.5048285689
H                22.7213349780       11.5746763849       19.3156738825
H                21.2210643968        9.2207490988       17.7687413577
H                22.0171985789       10.5541273637       16.9299953751
H                22.4924473137        8.8880495424       16.5936762823
N                26.6382746126        8.1232049364       18.9799045689
C                27.0047003788        6.8615391975       19.5897748207
C                27.6483592060        7.0931956578       20.9597733318
O                27.3368146498        6.4410166045       21.9466996330
C                27.9519991217        6.1141922802       18.6565126966
C                28.4104455016        4.7773282371       19.2206782169
C                28.5651298533        3.6937669232       18.1454132714
O                28.2228232533        3.9041073128       16.9729067475
O                29.0108165371        2.5837008681       18.5588095540
H                26.9161344967        8.2706474918       18.0164915057
H                26.0987199147        6.2625379124       19.7701049883
H                27.4323910253        5.9425166787       17.7092434595
H                28.8134310279        6.7453492048       18.4380623873
H                29.3577028414        4.8637890374       19.7537060432
H                27.6784288831        4.3828085903       19.9319525185
N                28.5995855313        8.0319593396       20.9701678790
C                29.3318001383        8.3511667136       22.1767903927
C                28.3687464579        8.7842514707       23.2881093658
O                28.3942856560        8.2772235397       24.4049811427
H                28.8810432215        8.4591622547       20.0986984340
H                29.8892731231        7.4768873776       22.5285551997
H                30.0154471646        9.1676538921       21.9490783165
N                27.5728585743        9.7934608941       22.9416015394
C                26.5323685824       10.3112921469       23.8133388016
C                25.7353572390        9.1655267447       24.4384937477
O                25.5612830224        9.0845784096       25.6493132130
C                25.6205725257       11.2639108237       23.0197196140
C                24.3214207447       11.5351635593       23.7743687948
C                26.3570903561       12.5718194995       22.7413086263
H                27.5817070441       10.1085692015       21.9750357775
H                26.9992513693       10.8480016693       24.6506502519
H                25.3829589891       10.7645414099       22.0765794612
H                23.7463982773       12.3010926547       23.2616150176
H                23.7127476941       10.6372166422       23.8404076001
H                24.5321988738       11.8740535723       24.7842155725
H                25.7185474030       13.2350394534       22.1642527875
H                26.5939427788       13.0489648787       23.6879914453
H                27.2701657841       12.3844969041       22.1829540801
N                25.2168886736        8.3034998303       23.5642434976
C                24.3926131888        7.1959249450       23.9964979235
C                25.0961032931        6.4252813429       25.1100891488
O                24.5398189597        6.2139553721       26.1825127973
C                24.0417596295        6.2820176778       22.8160850746
C                23.3877355764        5.0017224428       23.3262887809
C                23.1037134497        6.9979368088       21.8442559858
H                25.4125720837        8.3896911860       22.5734015603
H                23.4715580205        7.5952552412       24.4485835749
H                24.9760330515        6.0293089647       22.3045549708
H                23.1129064028        4.3814750190       22.4790890709
H                24.0625615031        4.4336751500       23.9641372899
H                22.5017991539        5.2441011145       23.9078696500
H                22.8890491442        6.3508450109       20.9981279544
H                22.1698070847        7.2548479997       22.3359641687
H                23.5615516825        7.9060082831       21.4653160378
N                26.3398693587        6.0158098013       24.8475246995
C                27.0369370187        5.2220759998       25.8364195181
C                27.1586930104        5.9818801671       27.1591766854
O                26.9468361741        5.4387951667       28.2361301599
C                28.4192374626        4.7965666790       25.3478872033
O                28.2808062245        3.6071832533       24.5951795864
H                26.7480836386        6.1329518676       23.9282511015
H                26.4516082832        4.3158575831       26.0447343670
H                28.8473888204        5.6056177943       24.7426925753
H                29.0653876374        4.6155881221       26.2189221240
H                29.1069141770        3.4147790534       24.1339857168
N                27.5445498030        7.2531896938       27.0596493353
C                27.6578538257        8.0789509328       28.2496156265
C                26.4128758614        7.9116412349       29.1331540504
O                26.4957151028        7.7368312197       30.3417815887
C                27.8171357723        9.5480808828       27.8688112725
C                29.1462422367        9.8178813733       27.1668733277
C                29.1419554617       11.1737193317       26.4905351639
O                28.3758609537       12.0813250445       26.7960016806
N                30.0527412633       11.3284870622       25.5220198484
H                27.6445051899        7.6882460423       26.1494154098
H                28.5132690336        7.7327854308       28.8457790099
H                26.9950553146        9.8153928782       27.2035039599
H                27.7367194998       10.1580622006       28.7700955052
H                29.9667442295        9.7870018502       27.8855378902
H                29.3265665124        9.0553906159       26.4092075291
H                30.6475967320       10.5676280384       25.2411100072
H                30.0757295082       12.2041856220       25.0120616380
N                25.2633898487        8.0820647642       28.4782616813
C                23.9724352053        7.9649724685       29.1245742312
C                23.8133577925        6.5700495690       29.7231966027
O                23.5017981102        6.4203847838       30.9020956830
C                22.8342323989        8.2858600057       28.1435666188
C                22.8785623000        9.7737719238       27.7766844338
C                21.4953029514        7.8951681577       28.7652506613
C                21.9656620480       10.1222539862       26.6080576856
H                25.2744059541        8.1946545582       27.4716812872
H                23.9413852486        8.6638011560       29.9720222688
H                23.0076903715        7.6856490506       27.2448567475
H                22.5943914640       10.3612631272       28.6506822370
H                23.9020249860       10.0405279261       27.5058784451
H                20.6716711415        8.1466068122       28.1061209282
H                21.4656939282        6.8255667784       28.9535189894
H                21.3582140887        8.4103141813       29.7116890350
H                22.0534342705       11.1810855930       26.3805126351
H                22.2622333716        9.5572485627       25.7275916649
H                20.9282942337        9.8996197876       26.8406707680
N                25.8138865400        4.5222862073       30.7996882108
C                26.6684856013        4.3667055626       31.9608491864
C                26.0902068240        5.1125803282       33.1643215269
O                26.0276543092        4.6014354150       34.2766316520
C                28.0576132158        4.8867480799       31.6172234546
H                26.2330247998        4.9310441649       29.9734640330
H                26.7044647141        3.3061881787       32.2466358870
H                28.7276762209        4.7507999950       32.4596439946
H                28.4382832504        4.3388436643       30.7593030469
H                27.9971480799        5.9418153712       31.3602692774
N                25.7022506066        6.3693778091       32.9399577128
C                25.0534687269        7.1092050425       34.0054060763
C                23.8790884713        6.2828974278       34.5393797163
O                23.7230503537        6.0738540853       35.7374108626
C                24.5984328666        8.4931217950       33.5264916514
C                23.7520303369        9.1701373282       34.6046788394
C                25.8136613403        9.3543176780       33.1872739155
H                25.7473239792        6.7713802035       32.0114800205
H                25.7599434413        7.2192191225       34.8391584083
H                23.9950419308        8.3455458341       32.6250634988
H                23.4809008890       10.1743078912       34.2916616610
H                22.8448675560        8.6042955009       34.8028376163
H                24.3123883382        9.2426765917       35.5330164923
H                25.4873630455       10.3458034195       32.8825194503
H                26.4600524362        9.4592334269       34.0539972846
H                26.3838344420        8.9184875411       32.3724639158
O                31.7187564998        6.9470626703       19.0543354908
H                32.4209325361        7.4587689717       19.4502451530
H                31.0840231820        7.5906438691       18.6987098578
O                29.0107035581       14.0942268671       25.0128763983
H                28.7395237929       13.5640560452       25.7836372282
H                28.1936763828       14.3302538027       24.5680192724
O                28.7904581727       13.1389409114       32.0159960006
H                27.8326862454       13.2597231438       31.9005182154
H                29.1504697729       13.1191024010       31.1260579997
N                19.2696950525        8.0496531440       12.6789549846
C                19.7879651409        9.0861944623       13.5465748540
C                18.6436873759        9.8219266170       14.2418648196
O                18.6323370535        9.9792940083       15.4595459419
C                20.6122650156       10.1067257924       12.7653438077
C                22.0129866703        9.6162564216       12.3886610218
C                22.6545122725       10.6002084450       11.4149820628
C                22.8887067495        9.4690611649       13.6281287851
H                19.5850092318        8.0267502036       11.7136245690
H                20.3839765997        8.6287315963       14.3468132720
H                20.0490254745       10.3662624889       11.8683781861
H                20.6998628620       11.0082649652       13.3770105191
H                21.9243565998        8.6440497872       11.8961158881
H                23.6358900831       10.2466235444       11.1096982464
H                22.0337792825       10.7213983604       10.5308731108
H                22.7766729082       11.5709331484       11.8878570816
H                23.9217821040        9.3255661488       13.3346054291
H                22.8353310032       10.3637060220       14.2459557951
H                22.5813786163        8.6183146045       14.2291378923
N                16.8915576157        7.7732003351       16.9566328533
C                17.6689199225        7.5407342498       18.1611937470
C                17.7998649222        8.8344339008       18.9689748355
O                17.5747048400        8.8671044537       20.1738669682
C                19.0434848390        6.9500387704       17.8037701431
C                19.9104441943        6.8237498994       19.0556928729
C                18.8730056638        5.5843948791       17.1390952869
H                17.3622338367        7.7040539576       16.0600960696
H                17.1076326518        6.8418741455       18.7950248503
H                19.5142770067        7.6373768803       17.0941824489
H                20.8822192706        6.4243651581       18.7832499614
H                20.0526103934        7.7899073758       19.5314090399
H                19.4314881625        6.1590777535       19.7680667104
H                19.8456105991        5.1573626185       16.9111408476
H                18.3383046494        4.9074920255       17.7991847135
H                18.3160334870        5.6700959920       16.2102572623
N                18.2360845514        9.8887486947       18.2782744844
C                18.3946660974       11.1781373151       18.9196904968
C                17.1185974800       11.5773462191       19.6546149905
O                17.1595316361       11.9998822400       20.8060098494
C                18.7958699918       12.2312776630       17.8895276833
C                19.0089709163       13.6313885513       18.4817825848
C                20.0272080516       13.6230586012       19.6200004456
C                19.4696086294       14.5756848354       17.3731345882
H                18.3092457560        9.8580583127       17.2679388779
H                19.1735374847       11.0847050022       19.6876209953
H                19.7169565972       11.8942085937       17.4105913561
H                18.0172723866       12.2755733026       17.1240174209
H                18.0513953766       13.9946354982       18.8722196445
H                20.2891507519       14.6444868388       19.8848964665
H                19.6172296193       13.1452098026       20.5048285689
H                20.9267963010       13.0969216630       19.3156738825
H                19.6383707631       15.5731577419       17.7687413577
H                20.3950431223       14.2169961830       16.9299953751
H                18.7145530369       14.6384576162       16.5936762823
N                16.9584566381        9.7859867270       22.9416015394
C                17.9271566539       10.4281618660       23.8133388016
C                17.3334003805       11.6912766375       24.4384937477
O                17.3503341742       11.8825034987       25.6493132130
C                19.2080466564       10.7414910758       23.0197196140
C                20.0925343068       11.7309631536       23.7743687948
C                19.9724698803        9.4496935864       22.7413086263
H                17.2269242024        9.6207695736       21.9750357775
H                18.1585193412        9.7554747507       24.6506502519
H                18.8943868265       11.1969551416       22.0765794612
H                21.0433595946       11.8459826704       23.2616150176
H                19.6192259906       12.7070629366       23.8404076001
H                20.2806326026       11.3789789327       24.7842155725
H                20.8661066853        9.6710780282       22.1642527875
H                20.2672636886        9.0060006818       23.6879914453
H                19.3537060400        8.7526083678       22.1829540801
N                21.7093653055       17.8242263199       18.2782744844
C                22.7467178331       17.0421963623       18.9196904968
C                23.7304771941       17.9476997499       19.6546149905
O                24.0759370442       17.7009817204       20.8060098494
C                23.4581621810       16.1681734237       17.8895276833
C                24.5641433162       15.2835671653       18.4817825848
C                24.0478108001       14.4059129142       19.6200004456
C                25.1516090303       14.4124950618       17.3731345882
H                21.6462060528       17.7762120491       17.2679388779
H                22.2763673830       16.4143901111       19.6876209953
H                22.7057085015       15.5390235590       17.4105913561
H                23.8858221328       16.8203109093       17.1240174209
H                25.3575121699       15.9312284353       18.8722196445
H                24.8014222519       13.6683497625       19.8848964665
H                23.8389708175       14.9998890508       20.5048285689
H                23.1423687211       13.8899151063       19.3156738825
H                25.9310648401       13.7676063136       17.7687413577
H                24.3782582988       13.7903896076       16.9299953751
H                25.5834996494       15.0350059958       16.5936762823
N                22.2591847876       18.9820655333       22.9416015394
C                22.3309747638       17.8220591415       23.8133388016
C                23.7217423805       17.7047097721       24.4384937477
O                23.8788828034       17.5944312460       25.6493132130
C                21.9618808179       16.5561112549       23.0197196140
C                22.3765449485       15.2953864414       23.7743687948
C                20.4609397636       16.5400000685       22.7413086263
H                21.9818687535       18.8321743792       21.9750357775
H                21.6327292894       17.9580367343       24.6506502519
H                22.5131541844       16.6000166029       22.0765794612
H                22.0007421281       14.4144378292       23.2616150176
H                23.4585263153       15.2172335755       23.8404076001
H                21.9776685236       15.3084806493       24.7842155725
H                20.2058459118       15.6553956727       22.1642527875
H                19.9292935326       16.5065475939       23.6879914453
H                20.1666281759       17.4244078824       22.1829540801
N                24.7275138698       17.6867162806       23.5642434976
C                26.0988395995       17.5266602137       23.9964979235
C                26.4144914840       18.5212223164       25.1100891488
O                26.8756473099       18.1451289374       26.1825127973
C                27.0657332892       17.6797657519       22.8160850746
C                28.5015135137       17.7535119247       23.3262887809
C                26.9147522247       16.5094343648       21.8442559858
H                24.5550282611       17.8130874070       22.5734015603
H                26.2135370027       16.5293378915       24.4485835749
H                26.8174487435       18.6152246260       22.3045549708
H                29.1760781261       17.8256265906       22.4790890709
H                28.6560439364       18.6219519668       23.9641372899
H                28.7345756378       16.8650791409       23.9078696500
H                27.5824823130       16.6470755219       20.9981279544
H                27.1592137893       15.5721921325       22.3359641687
H                25.8994201431       16.4518981680       21.4653160378
N                24.8960316749       17.8377050126       28.4782616813
C                25.6429138992       16.7782516441       29.1245742312
C                26.9304912729       17.3379480132       29.7231966027
O                27.2158846200       17.1429618062       30.9020956830
C                25.9341185434       15.6320953305       28.1435666188
C                24.6233840731       14.9265301920       27.7766844338
C                26.9419323326       14.6678943391       28.7652506613
C                24.7780398804       13.9616943514       26.6080576856
H                24.7930180003       17.7909503428       27.4716812872
H                25.0532354812       16.4019472491       29.9720222688
H                26.3671874919       16.0824198188       27.2448567475
H                24.2566871845       14.3866854273       28.6506822370
H                23.8806352556       15.6794968767       27.5058784451
H                27.1359959752       13.8288889411       28.1061209282
H                27.8830388106       15.1770528624       28.9535189894
H                26.5643472208       14.2915988896       29.7116890350
H                23.8171786993       13.5082915224       26.3805126351
H                25.1190632686       14.5010353634       25.7275916649
H                25.4895306593       13.1746245704       26.8406707680
N                34.6799762720       16.9601068432       18.6720337895
C                33.4298149393       16.4239429350       18.1823031702
C                33.0294220448       17.0224458507       16.8257287757
O                32.2840110237       16.3975471988       16.0735088289
C                32.3237634033       16.6274444276       19.2214211073
C                32.5222693268       15.7081466970       20.4320504142
C                31.3724452457       15.7779777652       21.4463169731
N                31.5802449419       16.8073544341       22.4508378152
C                31.4640186052       16.7058244717       23.7787057154
N                31.2963948185       15.5305954712       24.3853454973
N                31.6398985523       17.7761331793       24.5481983309
H                34.6903898992       17.3983202166       19.5876345087
H                33.5615712578       15.3486942707       17.9899094098
H                32.3377920409       17.6789593299       19.5091417743
H                31.3701239305       16.4054264132       18.7392739621
H                32.5962990331       14.6856161359       20.0635904989
H                33.4628903273       15.9500001975       20.9266312368
H                30.4357454269       15.9881299759       20.9197381496
H                31.2756335198       14.8143535403       21.9429697940
H                31.8527992535       17.7076856478       22.0841433162
H                30.9196895678       14.7329054885       23.8996560582
H                31.0688916428       15.5592808474       25.3720034661
H                31.6939646103       18.6955190735       24.1401557568
H                31.2452994067       17.7803059167       25.5176792753
H                30.3476327775       10.9317042846       10.7735551760
H                23.9632020359        5.7616178900       29.1539998676
H                25.5072039367        3.7162739562       30.5422197041
H                23.2107915438        5.8953515946       33.9044092887
H                35.2896735222       16.3002095165       18.7249939754
H                33.3749536810       17.9206319209       16.5539390194
H                19.4873560654        7.2424014075       13.0120740584
H                17.8837214038       10.1866446010       13.7038754950
H                16.2202764811        7.1753615837       16.9122429265
H                16.2325473014       11.4963434718       19.1981572862
H                16.7504931373        8.9742509379       23.2699857520
H                16.9165889899       12.3890505786       23.8559306251
H                20.9037876165       17.5598330227       18.5801697830
H                24.1033518465       18.7555430872       19.1981572862
H                21.6601827235       19.5680351026       23.2699857520
H                26.2456688834       19.4970887496       24.9715841522
H                24.0565362111       17.8542691887       28.8022570429
H                27.5556915224       17.8719327741       29.1539998676
