 475 
 
N                -0.9349781704       80.5038050854       -4.3076361438
C                 0.3532367302       80.8214876811       -3.7567985885
C                 1.2555914424       79.6035743120       -3.6971724507
O                 2.3128691757       79.5775349055       -4.2993933738
C                 0.1163337624       81.3602180775       -2.3880070221
C                 1.4447019923       81.5995702031       -1.7275333621
C                 2.4262175496       82.2995823192       -2.6792312828
C                 1.1541282275       82.4029455166       -0.4414094578
H                -1.7683251170       80.7398958297       -3.7794700897
H                 0.8318609107       81.5508273702       -4.4222881807
H                -0.4568849905       82.2896977492       -2.4574187935
H                -0.4697107054       80.6416587484       -1.8153608112
H                 1.8784006776       80.6357140950       -1.4360369516
H                 3.3032151355       82.6033809885       -2.1105171678
H                 2.7592046019       81.6474498412       -3.4734619852
H                 1.9652983743       83.1919142945       -3.0943640318
H                 2.0715299417       82.6307602668        0.0955209253
H                 0.6345768629       83.3248125375       -0.6823199010
H                 0.5194673712       81.8062162352        0.2103720204
N                 0.8677411425       78.6561153437       -2.8418686307
C                 1.5782051840       77.4105201148       -2.8865105692
C                 1.9999253727       77.1214664183       -4.3076936264
O                 3.1820495101       77.1083267427       -4.6171083895
C                 0.8332323802       76.2114085731       -2.3028799503
C                 1.7935464194       75.1480284046       -1.7470946826
C                 3.1102796119       74.7556150276       -2.5997037617
O                 3.0226510726       74.3039707854       -3.7747261313
O                 4.1745557561       74.9130275831       -1.9557617928
H                -0.0944540129       78.6356377704       -2.5303314413
H                 2.5221790278       77.5201119094       -2.3196747228
H                 0.1974280763       76.5400203110       -1.4771419214
H                 0.1823870861       75.7717831241       -3.0619513511
H                 2.2047236096       75.4883026277       -0.7953467680
H                 1.2336246005       74.2235871555       -1.5578350670
N                 1.1290013697       76.8343154207       -5.2582669551
C                 1.8429891098       76.2649478394       -6.3794826139
C                 2.8737704079       77.2063870004       -7.0028849280
O                 3.7632171300       76.7483606664       -7.7363247528
C                 0.9282795372       75.7524255032       -7.4709599544
C                -0.1903663708       74.9821650809       -6.8108073808
C                 0.4113038176       76.9036276571       -8.3107548572
H                 0.1367920190       76.7064619156       -5.1133428960
H                 2.4223010894       75.4091582376       -5.9897900930
H                 1.5068392151       75.0679160557       -8.1055375589
H                -0.7085976504       74.3509614833       -7.5350057907
H                 0.1877273403       74.3322521087       -6.0214550701
H                -0.9344893737       75.6403509544       -6.3723859761
H                -0.4126599038       76.5851319329       -8.9507850723
H                 0.0495057129       77.6895354994       -7.6500882447
H                 1.1984995009       77.3002741539       -8.9464361308
N                 2.7351649335       78.5155630923       -6.8886242778
C                 3.7435864925       79.3206400405       -7.5311997598
C                 5.0911690873       79.2830207548       -6.8037991207
O                 6.1390247463       79.3908737032       -7.4394972316
C                 3.3339009895       80.7767863980       -7.7005653470
C                 4.3696187552       81.4174107124       -8.6545207463
C                 1.9086719417       80.7959820415       -8.2482733047
H                 2.0706209974       78.9138568537       -6.2398781946
H                 3.9055944220       78.8970073717       -8.5301478459
H                 3.3593186394       81.2743268470       -6.7269697800
H                 4.1582847997       82.4751098791       -8.7829361546
H                 5.3695601899       81.3067059904       -8.2527963818
H                 4.3271956583       80.9059619724       -9.6121487976
H                 1.6345982918       81.8095210211       -8.5373545852
H                 1.8402408973       80.1536748158       -9.1228016018
H                 1.2037763515       80.4442400724       -7.5028125310
N                 5.0320409561       79.2624592397       -5.4633416056
C                 6.1174286372       78.6575085423       -4.7284824443
C                 6.4830966717       77.3779210137       -5.4665621625
O                 7.5274314576       77.3769583407       -6.1107439274
C                 5.6545908644       78.3891728866       -3.3067800985
C                 6.7976537128       77.8178596610       -2.4773758883
C                 5.0037126503       79.6338062919       -2.7029387873
H                 4.1139731599       79.1283002267       -5.0496052831
H                 7.0144004543       79.3091052577       -4.7459708818
H                 4.8843919359       77.6118366736       -3.3517201328
H                 6.4412243298       77.4440610663       -1.5254373017
H                 7.2712023549       77.0054314462       -3.0171928905
H                 7.5627789214       78.5653713342       -2.2627301116
H                 4.9032335977       79.5004674083       -1.6280999559
H                 5.6193837165       80.5209808454       -2.8558576963
H                 4.0256852652       79.8037365551       -3.1243761480
N                 5.7194291703       76.2846005832       -5.4736213718
C                 6.2660034594       75.1601403783       -6.1677051596
C                 6.8931769072       75.6288111877       -7.4956355118
O                 7.9701938090       75.1621438945       -7.8939715998
C                 5.2529315155       74.0314694005       -6.3592264191
C                 6.0447428612       72.8702092672       -6.9919807253
O                 6.6921317830       72.0987300421       -6.3084751048
N                 6.0425745170       72.7621526117       -8.3645018809
H                 4.7962401842       76.2459755346       -5.0527137184
H                 7.1253830006       74.7421907773       -5.6438229729
H                 4.8261269422       73.7152811753       -5.4040403442
H                 4.4533233188       74.3688572190       -7.0202363954
H                 6.8045421639       72.2169597056       -8.7442025619
H                 5.8054585670       73.5852953840       -8.8941004754
N                 6.2408164020       76.4250485382       -8.3163689292
C                 6.8908950091       76.6491371374       -9.5688079450
C                 8.3387447735       77.0922546279       -9.4612356325
O                 9.1992627270       76.5361732664      -10.1309284806
C                 6.0087962377       77.5951804480      -10.3107173573
C                 4.7775664194       76.7850898253      -10.6510052227
C                 4.1804121316       77.5116099702      -11.8723107581
O                 3.4094389991       78.4434224568      -11.5107436527
O                 4.5188584525       77.1845961565      -13.0468796202
H                 5.3200241842       76.8027998650       -8.1243596761
H                 6.9652994700       75.6962513758      -10.1230486192
H                 5.7871809593       78.4754171528       -9.7122175740
H                 6.5079593776       77.9108559768      -11.2333511986
H                 5.0564968566       75.7745042173      -10.9616790687
H                 4.0523898764       76.7345254342       -9.8463765139
N                 8.6037506630       78.1458643848       -8.6840305894
C                 9.9909214424       78.5043593728       -8.4086525387
C                10.7964778318       77.2628224165       -7.9170092973
O                11.8612956864       76.9281953268       -8.4336703823
C                10.1510940471       79.6838195681       -7.4345137898
C                 9.4783909147       80.9826744204       -7.8948070575
C                10.0866433331       81.8317367189       -9.0265699471
N                11.4472959870       82.3644897993       -8.8182098742
C                11.9107294088       83.5819870917       -8.4389804966
N                11.1975070522       84.4080925261       -7.6677487206
N                13.1585685415       83.9863263726       -8.7883673801
H                 7.8821495401       78.4650483422       -8.0429783149
H                10.4457475520       78.7716218621       -9.3767256978
H                 9.7006277952       79.3912000622       -6.4853332021
H                11.2239817072       79.8314675149       -7.2965721511
H                 8.4593175888       80.7374810488       -8.1991313895
H                 9.4052487721       81.6198801508       -7.0090753056
H                10.1277994132       81.2427493603       -9.9447873736
H                 9.4152701878       82.6793556173       -9.1795594686
H                12.1617482934       81.7347127135       -9.1668990522
H                10.2255873569       84.2027064898       -7.4667879429
H                11.3836451745       85.4007370726       -7.6457461355
H                13.7877988584       83.3618677550       -9.2702119644
H                13.4852476854       84.8958605692       -8.4990564246
N                10.2776413974       76.6237137388       -6.8686465254
C                10.8315551622       75.3962379689       -6.2993590589
C                11.4048624193       74.5811130770       -7.4777803321
O                12.5100524789       74.0455503153       -7.5209296228
C                 9.7490519800       74.5340084162       -5.5536563905
C                 9.0186348890       75.1252862762       -4.2949505376
C                 7.8072329892       74.3435210197       -3.6415616263
N                 8.0086304413       74.2852803706       -2.2001702603
C                 8.6915309886       73.3171322855       -1.5732520228
N                 8.4558417300       72.0173343446       -1.8162107408
N                 9.5314473767       73.6523892093       -0.5995974355
H                 9.3340177719       76.8694701956       -6.5854504236
H                11.6463444010       75.6630758190       -5.6193605089
H                 9.0090001992       74.2631135714       -6.3056002254
H                10.2601545592       73.6134987408       -5.2652939197
H                 9.7781953412       75.2462215173       -3.5199583452
H                 8.6818672568       76.1279841418       -4.5547916731
H                 6.8607834839       74.8637688690       -3.7663133550
H                 7.7184362994       73.3373133632       -4.0546748944
H                 8.1132733581       75.2095433936       -1.7902938461
H                 7.8273777591       71.7833549214       -2.5722235618
H                 9.1693559312       71.3338169686       -1.6048762107
H                 9.7433733581       74.6341364404       -0.4467831355
H                10.1662773808       72.9764093638       -0.2045322460
N                10.5468857488       74.4635783493       -8.4776839340
C                10.9399177144       73.6440659540       -9.5666630953
C                11.9978049550       74.2708691112      -10.4814497426
O                13.0458782104       73.6917311114      -10.7535534940
C                 9.7334432212       73.1563448448      -10.3538906703
C                10.3147985485       72.2794472765      -11.4494427230
C                11.4399480760       71.2062803881      -10.9706767019
O                11.7557743816       71.1105631492       -9.7655441998
O                11.8675510426       70.4854499821      -11.9010136866
H                 9.6413744856       74.9107789563       -8.4819156046
H                11.4396788014       72.7679282278       -9.1372306221
H                 9.0921946602       72.5869502474       -9.6782364781
H                 9.1766493424       74.0120426853      -10.7460681484
H                 9.5340463188       71.7352026044      -11.9826190754
H                10.8288280752       72.9094922117      -12.1793116246
N                11.7218494575       75.4615087202      -11.0124199425
C                12.6117217423       76.0571432226      -11.9840381531
C                14.0088068359       76.0450031597      -11.4052457431
O                15.0083959828       75.7173591561      -12.0404678989
C                12.2025303935       77.5113003478      -12.2102098752
C                10.8847631111       77.5991190400      -12.9758312891
C                10.1834938460       78.9762859787      -12.7670786857
O                 8.9306344491       78.9410116448      -12.7180631209
O                10.9327074749       79.9724547081      -12.6568065809
H                10.8414726678       75.9205397621      -10.8125325744
H                12.5970210235       75.4874874583      -12.9229216063
H                12.1005724848       78.0068632257      -11.2426356112
H                12.9844188785       78.0294302286      -12.7643687282
H                11.0548132238       77.4698196443      -14.0465818251
H                10.1727356169       76.8358915193      -12.6549749970
N                14.0091203091       76.5217802301      -10.1644664617
C                15.1995010155       76.7889772704       -9.4080602875
C                16.0341754477       75.5335123419       -9.2024917244
O                17.2250414435       75.5001413159       -9.4737688979
C                14.8080677537       77.4092106225       -8.0825504808
C                15.7923223131       78.4586677109       -7.5738200578
C                15.2376259239       79.9114589050       -7.8036785252
O                15.5989483245       80.7867950718       -6.9853855918
O                14.4645537256       80.0592783729       -8.7781807551
H                13.1212875074       76.6810091040       -9.7046249296
H                15.8260949290       77.4801776369       -9.9895204733
H                13.8500431490       77.9112029153       -8.2341342813
H                14.6566694561       76.6210363213       -7.3425494376
H                15.9843400342       78.3391444893       -6.5060894075
H                16.7472962255       78.3829140838       -8.0945773125
N                15.4248355345       74.4689510655       -8.6522715046
C                16.1645999255       73.2242456218       -8.5519497318
C                16.2986520494       72.4646155098       -9.8844256078
O                17.0409807337       71.4913411932       -9.9522576248
C                15.5824231988       72.2926202412       -7.4688728276
O                14.4705138330       71.5217471330       -7.8632285850
H                14.4171267065       74.4340065572       -8.5402715500
H                17.1828452842       73.5029633362       -8.2544962672
H                16.3454638499       71.5624236134       -7.1963418396
H                15.3268684108       72.9163394283       -6.6005917071
H                13.7330789457       72.0912525417       -8.1219726162
N                15.6334534470       72.9984588773      -10.9176281940
C                15.6308666384       72.3979849955      -12.2407466843
C                17.0551773575       72.4808849609      -12.7721060795
O                17.6207763868       71.5599764204      -13.3621045277
C                14.6710195574       73.1068140202      -13.2024649724
H                14.8204722366       73.5713948284      -10.7322579826
H                15.3588593068       71.3345480802      -12.1684589935
H                14.8074157876       72.6934372443      -14.1988494740
H                13.6507507300       72.9227345547      -12.8802580048
H                14.8728029906       74.1687156167      -13.2126848988
N                 2.4290307712       84.3550485443      -10.6630545655
C                 3.6774046880       84.1389404273      -11.3239230030
C                 4.3269510399       85.5025660603      -11.3790723693
O                 5.5050255864       85.5392166967      -11.0537446742
C                 3.5111927694       83.4619031674      -12.6605409358
C                 3.3698656730       81.9549489110      -12.4618042086
C                 1.9196289474       81.4824254310      -12.3044608896
N                 1.8411356012       80.1582180773      -12.8979483958
C                 1.4015952064       79.8553345433      -14.1069359606
N                 0.4167838364       80.5927221388      -14.6993212351
N                 1.9955905298       78.8943133464      -14.8514785461
H                 1.5950894361       83.8569061385      -10.9352725758
H                 4.3462757824       83.5339826491      -10.6928931989
H                 2.6448559545       83.8774373723      -13.1743903321
H                 4.3856699784       83.6785535942      -13.2715778718
H                 3.7487590663       81.4640461673      -13.3596560319
H                 3.9615970249       81.5997642545      -11.6218449213
H                 1.6276233663       81.4070642666      -11.2559039975
H                 1.2392428931       82.1545634760      -12.8276670599
H                 2.4915711882       79.4685755467      -12.4380048608
H                -0.3213368247       80.8916934626      -14.0745139642
H                 0.0481056387       80.1521051800      -15.5334012511
H                 2.7236546100       78.3432920582      -14.4115736675
H                 1.4872970299       78.4384629202      -15.5938694763
N                 5.4792056695       87.3442217260       -8.2240013265
C                 6.4020165231       86.2776272684       -7.8077343726
C                 7.6942626429       86.1500898053       -8.6583944950
O                 8.7036794790       85.7076569978       -8.1213733179
C                 5.7338150325       84.8944292190       -7.8122239422
H                 4.6616134924       87.0032679627       -8.7224597865
H                 6.7489813197       86.5200181221       -6.7960168597
H                 6.4297079820       84.1719016711       -7.3967560445
H                 4.8213842018       84.9007277398       -7.2255293455
H                 5.5024674805       84.6299289949       -8.8362877870
N                 7.6133794574       86.4849955875       -9.9516000560
C                 8.7429716970       86.6614437145      -10.8311729413
C                 9.8005249006       87.5832885719      -10.1472053432
O                10.9749310728       87.6431531639      -10.5307121465
C                 8.3967965757       87.4269104850      -12.1549347429
C                 7.4150078443       86.9094901885      -13.2522117381
C                 7.7617131550       85.6864851311      -14.1474340655
N                 7.0916754365       84.4785078251      -13.5976209178
C                 7.0884934837       83.2150128666      -14.0483378032
N                 7.4392447648       82.9428488890      -15.3099256096
N                 6.7225845790       82.2318598774      -13.1978531856
H                 6.7040622729       86.7233022777      -10.3317203746
H                 9.2360741652       85.7056944456      -11.0549743276
H                 7.9704219671       88.3813112366      -11.8361628485
H                 9.3611211078       87.6428527790      -12.6203868792
H                 6.4704151801       86.6969474260      -12.7576420789
H                 7.2641541451       87.7724698513      -13.8987009915
H                 7.4017084919       85.8745424106      -15.1591258018
H                 8.8436777594       85.5367466357      -14.1705055821
H                 6.8111392314       84.6128207623      -12.6289075048
H                 7.7231039240       83.6914800976      -15.9211256976
H                 7.3929335006       82.0114456589      -15.6890156724
H                 6.4377093430       82.4397474306      -12.2561393253
H                 6.5612144506       81.3024458873      -13.5539682295
N                10.4714585944       87.8725960897       -6.4344361077
C                11.2582183685       87.6984974447       -5.2193705149
C                11.8524092946       86.2833848193       -5.1200346820
O                11.2062998591       85.2592941492       -5.1960372005
C                10.3985330978       88.2796905398       -4.0836166879
O                11.0856602000       88.3260143366       -2.8753304899
H                 9.4752935450       87.9818728857       -6.3283057819
H                12.1304676185       88.3647536531       -5.3073164822
H                10.1617769960       89.3159888656       -4.3498587532
H                 9.4663177869       87.7208197921       -3.9922471743
H                11.1631662360       87.4127852891       -2.5401013186
N                13.2014405493       86.1746812579       -5.1394880313
C                13.6318814383       84.8142599647       -5.4477859714
C                13.0354471148       83.9729808819       -4.3297767229
O                12.9794897986       84.3424658423       -3.1588602605
C                15.1202588829       84.3988973019       -5.7797548162
O                15.8081365425       83.9749088277       -4.6296682550
C                15.8807461181       85.4344153602       -6.6186968663
H                13.8385684499       86.9562539306       -5.1115937676
H                13.0652812751       84.5347761859       -6.3398614186
H                15.0285089023       83.4651244666       -6.3515857296
H                16.1025388503       84.7463750756       -4.1251116075
H                16.8402551633       85.0110514462       -6.8999963154
H                15.3267961085       85.7047964842       -7.5095553965
H                16.0587585736       86.3345102200       -6.0326657698
N                12.5985242025       82.7938097598       -4.7350695694
C                12.0377207175       81.8302633149       -3.8443118589
C                12.4688963771       82.1008432527       -2.4355280710
O                11.5873769166       82.1614395250       -1.5852493532
C                12.4153125138       80.4047828954       -4.2509168882
C                11.8649707498       79.2845533054       -3.3530799176
C                11.6419764287       78.0316573440       -4.1940382482
C                12.7692452408       78.9293937081       -2.1638695111
H                12.7705071484       82.4923546000       -5.6843087245
H                10.9397861874       81.9239027253       -3.8438012515
H                12.0398839909       80.2495358397       -5.2643532524
H                13.5043600770       80.3256654388       -4.2948125356
H                10.9015030429       79.6042141948       -2.9356921066
H                11.2867704705       77.2330785745       -3.5498938237
H                10.9095316721       78.2093305151       -4.9734559581
H                12.5809412750       77.7317482319       -4.6538977134
H                12.3473472453       78.0805177422       -1.6291704060
H                13.7727626151       78.6757362581       -2.4966989898
H                12.8303864325       79.7464898444       -1.4515474742
N                10.0780105214       84.0814833821       -0.6478368506
C                 8.7197050479       83.7672880073       -0.9820413794
C                 8.3103706923       82.5938368479       -0.1808313626
O                 7.3364679683       82.5750191465        0.5562652153
C                 8.6183500469       83.3782076376       -2.4355099509
C                 8.9655624270       84.5449848047       -3.3561291514
C                 8.6075827095       84.2399979823       -4.8115704862
C                 8.2687357499       85.8064964277       -2.8551650895
H                10.7800342638       83.5940523493       -1.1857546341
H                 8.0870083654       84.6150011902       -0.7124304242
H                 9.2727335568       82.5257926831       -2.6070715343
H                 7.5870624335       83.0530634102       -2.6100637794
H                10.0396719365       84.7103566242       -3.3019475144
H                 8.8800414979       85.0738747915       -5.4442024217
H                 9.1540730190       83.3597293887       -5.1345026218
H                 7.5388702272       84.0463164192       -4.8960972961
H                 8.1310156114       86.5083241758       -3.6717923807
H                 7.2710761963       85.5832167682       -2.4759668247
H                 8.8479201688       86.2785749484       -2.0685866837
N                 9.0886077098       81.5517275009       -0.3405963899
C                 8.9554404063       80.5424990158        0.6403951483
C                 8.3647065345       81.0025739673        1.9417212863
O                 7.5345114737       80.2884742323        2.5088904379
C                10.3229597355       79.9507070849        0.9527989606
C                10.1744484171       78.5227660282        1.4491537278
C                 9.2580609373       77.7725176651        0.4196288396
O                 9.8370206165       77.0609992284       -0.4276397251
O                 8.0207537377       77.9349078817        0.5289418445
H                10.0302177256       81.7099457497       -0.6923316210
H                 8.2668236650       79.7660758104        0.2826886804
H                10.8964982772       79.9316747820        0.0217690778
H                10.8697720395       80.5763775779        1.6616102529
H                11.1451762127       78.0261040095        1.5103378022
H                 9.6943845938       78.5073230120        2.4327678763
N                 4.3548862893       82.3874945299        2.1570260271
C                 3.7730433345       81.0615160403        2.2699423399
C                 4.0417258537       80.3635747004        3.5991365589
O                 3.0732320509       80.0033561569        4.2513298630
C                 4.2897482307       80.1807360976        1.1522621495
C                 3.8421763762       78.7355593792        1.3900140394
C                 2.3056374192       78.5407336748        1.2069480924
C                 4.7115826059       77.6982912547        0.5998486440
H                 5.2346134740       82.3663607612        1.6548920708
H                 2.6790225733       81.1499600593        2.2133191198
H                 3.9317072696       80.5375641571        0.1850598675
H                 5.3837035689       80.2049299901        1.1512297447
H                 4.0493149904       78.4904410984        2.4422654444
H                 2.0468245880       77.5316108429        1.5184790321
H                 1.7628487287       79.2429649988        1.8281104448
H                 2.0252807373       78.6754207207        0.1644275670
H                 4.4951631543       76.7104157261        1.0027120923
H                 4.4624155353       77.6850415875       -0.4576870803
H                 5.7689629999       77.9033640465        0.7363701198
N                 8.2868624311       72.2449065236        5.3846102548
C                 8.4066823759       71.1257404173        4.4536737559
C                 8.9446468751       69.8858609954        5.1504639528
O                 8.5293881174       68.7591555449        4.9612201923
C                 9.4486858588       71.4054311209        3.3651431367
C                 8.9611700976       72.2079187388        2.1622846998
C                 7.7228044759       71.6084457626        1.4435111340
N                 6.5191202321       72.4978408527        1.5080111140
C                 5.5366045444       72.5728520512        0.5834887441
N                 5.3951692544       71.6141548943       -0.3249293804
N                 4.6464993441       73.5869821037        0.6245299851
H                 8.6520216454       73.1314173901        5.0667025162
H                 7.4242501216       70.9136843289        4.0214690110
H                10.3075739559       71.9193329946        3.7967799998
H                 9.7943672641       70.4383512302        2.9918565560
H                 8.7461468328       73.2374758864        2.4495822583
H                 9.8006623633       72.2355533041        1.4772078417
H                 7.9431142320       71.4491351508        0.3904767966
H                 7.4520969346       70.6493161471        1.8905734885
H                 6.6283035437       73.3140976001        2.0957023522
H                 5.9206011647       70.7572150722       -0.2457953516
H                 4.6232158939       71.6056739897       -0.9915556865
H                 4.8814141450       74.4176640665        1.1499428644
H                 4.1776960764       73.8142399175       -0.2511779135
N                -0.1001111990       69.9160031735       -9.0761015756
C                 0.9048731734       69.8794726929       -8.0794820017
C                 0.5901697381       68.9289363093       -6.9835753752
O                 1.4558401686       68.4417103297       -6.2589112767
C                 1.0720554146       71.2799204496       -7.5214641580
C                 1.9065056093       71.7563094316       -8.6866956315
O                 1.4836144345       71.6623105495       -9.8372422458
N                 3.1725464514       72.0644847620       -8.3088383492
H                -0.8157659923       70.6385932032       -9.0349799463
H                 1.8552725178       69.5544373560       -8.5257998000
H                 0.0999839029       71.7593144150       -7.4393034112
H                 1.5980573631       71.3052437554       -6.5670842569
H                 3.8730044203       72.2527165972       -9.0122209845
H                 3.4611029624       71.9875642130       -7.3461811093
N                 2.5175520580       66.6596360278       -8.3943834972
C                 3.9388919381       66.9752581611       -8.4601262789
C                 4.6116119733       66.7862940488       -7.0707140240
O                 5.6827808298       66.1892182231       -6.9790220919
C                 4.3103493961       68.3757114693       -9.0025666261
C                 4.1204395597       68.7070692514      -10.5216705801
C                 5.1945780230       68.2313075594      -11.5440050408
N                 6.6129550141       68.7074994737      -11.4322469541
C                 7.6264542858       68.6769194601      -12.3279934357
N                 7.5197256209       68.2580921994      -13.5930671791
N                 8.8500247953       69.0219438141      -11.8969824559
H                 1.8853768252       67.1932923645       -8.9870187726
H                 4.4165365784       66.2230657561       -9.1084809536
H                 3.7634818555       69.1156180896       -8.4156090758
H                 5.3662043390       68.5102679924       -8.7550998730
H                 3.1829061158       68.2740870337      -10.8657724203
H                 4.0176903376       69.7894795448      -10.6032202237
H                 5.2276754172       67.1371226407      -11.5042771943
H                 4.8211515684       68.5334002030      -12.5249969080
H                 6.8763318586       68.9883279834      -10.4976649023
H                 6.6205186642       68.0888691780      -14.0507091066
H                 8.3085917848       68.3739668414      -14.2081867990
H                 9.0115742693       69.3474316663      -10.9586349490
H                 9.6289641769       69.1285694659      -12.5288489497
N                 4.0390195948       67.3697737678       -6.0173172460
C                 4.6028602960       67.0980472265       -4.7133599951
C                 4.5551183946       65.5941924315       -4.3622483870
O                 5.6361342784       65.0166693513       -4.3282270957
C                 4.0215811392       68.0373563009       -3.6565473111
C                 4.8336090288       69.3448212411       -3.5695599717
C                 3.9454912965       70.6377965375       -3.4378677786
O                 3.4003062437       70.8124445595       -2.3270808329
O                 3.8600048242       71.3713633846       -4.4521488778
H                 3.1164363692       67.7858007765       -6.0681200952
H                 5.6869153313       67.2821029210       -4.7944257342
H                 2.9806887716       68.2545007813       -3.9167134662
H                 4.0181082979       67.5401380504       -2.6864713524
H                 5.4968639922       69.3226038186       -2.7061624482
H                 5.4289901211       69.4854222611       -4.4736042909
H                -1.0387996631       80.9294114822       -5.0938169707
H                17.5865562609       73.3191105883      -12.6495733960
H                 2.5123154183       84.1528574183       -9.7900239727
H                 3.7949034276       86.2985178903      -11.6678387497
H                 5.1854363586       87.7876082051       -7.4979792731
H                 9.5378842705       88.1537635208       -9.3690162710
H                10.7481852014       88.6109574295       -6.8683081129
H                13.4386495859       82.2228651740       -2.2241294793
H                10.2235066229       84.9602647821       -0.7765774252
H                 8.6455592754       81.8772145226        2.3368486541
H                 3.7876441946       82.9277383330        1.7138860502
H                 4.9822012761       80.2167987416        3.9056700769
H                 7.4183467316       72.3878515967        5.5723525938
H                 9.6886853571       69.9681083259        5.8135190892
H                 0.2815596946       70.0256812196       -9.8837512863
H                -0.3576592892       68.6609653662       -6.8109147000
H                 2.3895963738       65.7999365405       -8.6279303539
H                 3.6774952473       65.1510090506       -4.1795844820
