 363 
 
N                54.6778676789       15.6108074909        6.4177603047
C                54.9951962602       15.2054809490        7.7657747360
C                56.4362602347       14.7868176150        7.9390505092
O                56.9796264294       15.1939148050        8.9557425537
C                53.9331232531       14.3273160662        8.4618223379
C                52.9517898097       13.7407524166        7.4664917487
C                54.5211519974       13.2751273558        9.3942231290
H                54.1445409692       14.9836115553        5.8281714464
H                54.9974057446       16.1580135067        8.3232008537
H                53.3465997137       15.0013823435        9.0991919480
H                52.1983739706       13.1606117263        7.9966855330
H                52.4365376050       14.5144682564        6.9104383607
H                53.4545958335       13.0695448590        6.7765139728
H                53.7167877118       12.7420061442        9.8942016936
H                55.1146381613       12.5493926680        8.8389849475
H                55.1606073105       13.7227205564       10.1486924463
N                57.1133925408       14.1754711577        6.9692134719
C                58.5470692199       14.0183498500        7.1578712138
C                59.3954116951       15.2816095487        6.8157024291
O                60.5796097399       15.2865562268        7.1093576324
C                59.2148891887       12.8478602415        6.3946980928
C                58.6703387659       11.4268242121        6.5490452035
C                58.3222514366       10.7462543870        5.1271465503
O                58.3334182256       11.4335517864        4.0725796902
O                58.0227908003        9.5326574234        5.1780663993
H                56.6902547468       13.8426050479        6.1089065277
H                58.6947969502       13.8606672716        8.2363851985
H                59.1259882185       13.0828665339        5.3242160212
H                60.2750981297       12.8782665913        6.6470973984
H                59.3641806991       10.7481710222        7.0375704913
H                57.7326498262       11.4113456576        7.1091041061
N                58.2524080927       19.0442853781        6.5676872158
C                57.7598254175       20.2222997903        7.2298779933
C                57.4509793530       19.9642061519        8.6992400580
O                58.2437428768       20.3339759451        9.5598517321
C                56.5863644532       20.7340609908        6.4224949594
C                57.2569179118       21.4332631988        5.2510832840
C                55.7188219742       21.6710830704        7.2099308233
C                56.3170996366       21.8216306403        4.1218953774
H                57.5758148652       18.2988913571        6.4587643813
H                58.5915770387       20.9384263659        7.2248986405
H                56.0019335324       19.8837338334        6.0659401200
H                57.7563483117       22.3334406339        5.6124880854
H                58.0154179399       20.7645591915        4.8342965595
H                54.9641588193       22.1087287898        6.5601490066
H                55.1977595473       21.1865626815        8.0261385362
H                56.3153672917       22.4858929283        7.6165668567
H                56.8803781701       22.1515265704        3.2551891090
H                55.6998401653       20.9754428099        3.8259367120
H                55.6532414366       22.6294476399        4.4198582358
N                56.2916488794       19.3646257403        8.9787453935
C                55.7578785488       19.2709795744       10.3333714732
C                56.6900421920       18.6521713024       11.3463705219
O                56.6628179625       18.9292746878       12.5303875194
C                54.5714812049       18.3103005411       10.3482288460
C                53.5449459120       18.7212361021        9.2258093832
C                54.0663686010       18.0819425487       11.7816902677
C                52.0640460080       18.8899919002        9.5857534148
H                55.7990675838       18.9039473150        8.2236379864
H                55.4686332104       20.2719479103       10.6716676818
H                54.9727965270       17.3356014824       10.0349762216
H                53.8621940377       19.6583697313        8.7754569235
H                53.6014343004       17.9512950976        8.4559167424
H                53.1459883986       17.5055806245       11.7571786862
H                54.7892436500       17.5115301936       12.3525658391
H                53.8843389930       19.0250275023       12.2881966380
H                51.4984913888       19.0498512674        8.6745335517
H                51.6598876792       18.0297707254       10.1038491803
H                51.9353780543       19.7622252250       10.2235469403
N                57.4906818309       17.6999809722       10.8760939565
C                58.3687716243       17.0452757500       11.7995276604
C                59.6736580432       17.7789629165       12.0027043554
O                60.2189148579       17.6355451008       13.0942140694
C                58.7643883014       15.6307889211       11.4096724770
C                57.6888784011       14.6582031253       11.8246383622
S                58.2266085490       12.8912647367       11.5801980619
C                58.9105149821       12.4815838544       13.2388638437
H                57.3819362675       17.2722030126        9.9658551000
H                57.8816434242       17.0129087416       12.7851701447
H                58.9006747504       15.5434483386       10.3327597137
H                59.6968142858       15.3611104163       11.9075267105
H                57.4414255239       14.7446704534       12.8804953866
H                56.8023567444       14.7806570656       11.2097549562
H                59.5638932004       11.6275804890       13.1057450289
H                59.4654618162       13.3283968382       13.6221652780
H                58.0987914607       12.2064015197       13.9047982420
N                60.1687523748       18.5866936664       11.0544482451
C                61.1975779797       19.4651864439       11.5216799993
C                60.5508156605       20.3444701239       12.5903300617
O                61.1893548194       20.7248964835       13.5727845531
C                61.6663312890       20.1932903721       10.2777146068
C                61.5750224771       19.1224380469        9.2231201004
C                60.2775340763       18.4137417914        9.6243616398
H                62.0176018761       18.9098880084       11.9985035948
H                60.9549240160       20.9834816421       10.0314362176
H                62.6724613732       20.5865378185       10.3857719459
H                61.5127444300       19.5067432127        8.2084635296
H                62.4141445387       18.4292801740        9.2775291021
H                59.4352441069       18.8570664594        9.1142924566
H                60.3009194511       17.3517508937        9.3560361687
N                59.2912192165       20.7967772712       12.3876785289
C                58.8337079953       21.9150838485       13.2608908459
C                58.9206194960       21.4735283994       14.6797742136
O                59.6501122606       22.0393188765       15.4833910731
C                57.4430013754       22.4544696786       12.9627057734
C                57.4040661205       22.9342048666       11.5128544828
C                55.9499619993       23.2519389380       11.1806592444
C                58.3819980880       24.0748009261       11.2780953346
H                58.7359210815       20.4949784762       11.5966395991
H                59.5913803114       22.7050198972       13.1931200767
H                56.7073215905       21.6649200908       13.1093103776
H                57.2229035897       23.2713389110       13.6480739368
H                57.6923017126       22.1004150611       10.8645596867
H                55.8555000479       23.5857470988       10.1490101942
H                55.3256893341       22.3731890397       11.3120533971
H                55.5606519737       24.0391620454       11.8234761122
H                58.5026412204       24.2482362378       10.2154678878
H                57.9960044491       24.9890619006       11.7300952329
H                59.3229918380       23.8505086642       11.7518470344
N                58.1296223297       20.4628229138       14.9781295089
C                58.0721402993       20.0513700264       16.3354630663
C                59.4238563212       19.6682883775       16.9723753519
O                59.5076009427       19.4294416081       18.1695324725
C                56.9989087204       18.9944405727       16.4281165037
C                55.6572441710       19.6014338179       16.0218698187
C                56.9385031506       18.4765259820       17.8459772229
C                54.6320710516       18.5253527827       15.6608904915
H                57.6781246820       19.9042199548       14.2622154811
H                57.7589092841       20.9208193347       16.9377059199
H                57.2615400358       18.1726452120       15.7491619275
H                55.2735236077       20.2022373049       16.8479769913
H                55.7745476210       20.2465503345       15.1528895781
H                56.0948605961       17.7990974129       17.9691834743
H                57.8305517020       17.9218964252       18.1236217893
H                56.8195573735       19.2959141360       18.5508442646
H                53.6921389328       18.9862021570       15.3691747138
H                54.9949421082       17.9259038416       14.8288694394
H                54.4371438537       17.8606219903       16.4978070648
N                60.5087189834       19.7113783458       16.1968569197
C                61.8011993945       19.4387581719       16.7449790938
C                62.7734919282       20.6131586529       16.6384778870
O                63.9625914340       20.4141285020       16.8864447064
H                60.4503738419       19.7579806544       15.1886320302
H                61.6780820790       19.2367964783       17.8128065309
H                62.2468041825       18.5595351171       16.2667354352
N                62.2456793740       21.7778812362       16.2277801085
C                62.8752138265       23.0731801526       16.4131176124
C                62.1369502225       23.9222237467       17.4336007505
O                62.8240924529       24.7061206140       18.0695515892
C                63.1082490030       23.9100761156       15.1459178676
C                64.0698118681       23.1388040485       14.2475458424
C                64.6021881609       23.9531668189       13.0777845208
C                65.1600781475       23.0260098445       11.9908596235
N                66.6070103711       22.7077572830       12.1992934399
H                61.2944733852       21.7489938195       15.8821991576
H                63.8516740285       22.8634741534       16.8663589556
H                62.1506737253       24.0761188455       14.6548795244
H                63.5286989247       24.8604494002       15.4722061218
H                64.8874555770       22.7735406903       14.8701929024
H                63.5267958532       22.2565346201       13.8992554194
H                63.7939540111       24.5619649268       12.6886730876
H                65.3664620410       24.6408560557       13.4384263059
H                64.6176010680       22.0770912665       12.0180411200
H                65.0847132681       23.4526412912       10.9895403507
H                66.9708961230       22.0914554228       11.4591278633
H                67.1777708528       23.5668107659       12.2222004899
H                66.7225356269       22.2267810605       13.1055549904
N                60.7971741313       23.7618460213       17.4562709730
C                59.7648011739       24.4434067846       18.2466407149
C                59.3358432411       23.5685675702       19.4704944250
O                60.2361604977       23.1135802345       20.1669538688
C                58.6901843976       25.1132698231       17.3137104486
C                57.6636166961       24.1830954737       16.6329219107
C                59.4183059935       25.9330989902       16.2138902989
C                56.3932341058       24.9065338280       16.1507561273
H                60.4180466473       22.9962463496       16.9162868706
H                60.2984552250       25.2756257563       18.7340975398
H                58.1498079717       25.8111700835       17.9639153452
H                58.1520099661       23.7412695119       15.7650376038
H                57.4213821347       23.3415869549       17.2811866073
H                58.6959892640       26.5418843627       15.6830668560
H                60.1695510077       26.5807396757       16.6565472686
H                59.9038041996       25.2459375636       15.5308503888
H                55.6357733154       24.1808459162       15.8696009341
H                55.9920032547       25.5583210198       16.9216993108
H                56.6215159034       25.5208970056       15.2849635467
N                58.0379515579       23.3915166984       19.7446720930
C                57.3728358272       22.6782177732       20.8285699366
C                58.0062898688       21.5160579129       21.5964244042
O                57.3171533437       21.0082456286       22.4809401465
C                56.1688875484       21.9423703026       20.2302387207
C                54.9782918923       22.7609638778       19.8946794457
C                54.9683452444       23.6537449556       18.8303936590
C                53.7976538822       22.5221554567       20.5876900275
C                53.8039589769       24.3146711592       18.4630996982
C                52.6277287668       23.1737026511       20.2174279324
C                52.6245902367       24.0719738774       19.1545965296
H                57.3797506914       23.9836900580       19.2555622840
H                57.0369382294       23.4026031448       21.5827288622
H                56.5285765528       21.4174905645       19.3367432426
H                55.8505917640       21.1782517637       20.9395731083
H                55.8529652678       23.7991899579       18.2490521840
H                53.7936975680       21.8166165639       21.4055517232
H                53.8102701807       25.0053299039       17.6359122568
H                51.7142930277       22.9656461715       20.7539354699
H                51.7112896204       24.5681253022       18.8692967538
N                59.1590016519       21.0278099809       21.1707225322
C                59.7768275420       19.8174531922       21.6301875686
C                60.9791252967       19.5242575984       20.7224210243
O                61.3277090819       20.3129473665       19.8667055417
H                59.7673394780       21.5781216154       20.5567021182
H                60.1288185931       19.9102125790       22.6663254030
H                59.0662436390       18.9855930852       21.5839508361
N                61.6288621533       18.3661836343       21.0232873992
C                62.7562183792       17.7560536845       20.3247977305
C                62.3612978900       16.3471114837       19.7668688226
O                61.9013744857       15.4712302475       20.4823311315
C                63.9432491912       17.5655031106       21.2799832729
O                64.9587957166       16.9935770969       20.5049602754
H                61.2071422139       17.7538750987       21.7084273113
H                63.0426969510       18.4186373884       19.5044785753
H                64.2571624810       18.5324752225       21.6937766759
H                63.6217498722       16.9000999863       22.0884361784
H                65.5604306219       16.4901601718       21.0671919056
N                62.5383338835       16.1654091995       18.4489833191
C                61.6704195849       15.2999288553       17.6558025493
C                61.0423463139       14.1211566596       18.4384043401
O                59.8282775837       14.0924421801       18.5818205417
C                62.4193815025       14.9400564773       16.3593216503
C                63.6976478558       14.1355577875       16.6087111769
C                61.4944291051       14.2511543409       15.3545220112
H                62.9765508261       16.9120882836       17.9242752695
H                60.7851952377       15.8951597843       17.3688441103
H                62.7238074580       15.8999004610       15.9235470934
H                64.3217557872       14.1795532439       15.7212664513
H                64.2509128135       14.5465430460       17.4493407891
H                63.4692066910       13.0900510371       16.8015709240
H                62.0662076825       13.9354790691       14.4855973571
H                61.0156652084       13.3725271958       15.7864043752
H                60.7082688830       14.9299637039       15.0308899455
N                61.8577901085       13.1420193079       18.8655364433
C                61.3832219489       11.8636757921       19.3483789916
C                62.2979305288       11.2118890215       20.4001361219
O                63.4211210517       11.5982139249       20.6782035651
C                61.2282221005       10.8974183425       18.1618965750
C                59.7710623996       11.0450774480       17.6402402729
O                58.8684859818       10.5973996485       18.3828333833
O                59.6854774161       11.5991041155       16.5288529011
H                62.8564359046       13.2827638549       18.8753459084
H                60.3960490206       12.0239400679       19.8027657314
H                61.9193312468       11.1753927491       17.3676940658
H                61.3879428844        9.8543158126       18.4389233530
N                53.7488108749        8.5297734731       15.7915456054
C                53.5252613975        8.9997223402       14.4536859990
C                52.1122951149        8.7278968034       14.0395577732
O                51.5367195861        9.6044879216       13.4117453867
C                54.5723638494        8.4501062043       13.5149852428
C                55.8735705778        9.1977567812       14.0070776501
O                56.0235728781       10.3302621057       13.5291281691
O                56.5740102688        8.6292653678       14.8668951462
H                54.5085319493        7.8719945692       15.9355779173
H                53.6268407056       10.0982997352       14.4220557733
H                54.6698638084        7.3688944438       13.6125154677
H                54.3590125552        8.7379790771       12.4874337713
N                51.0379268200       11.9373326361       15.0768934268
C                51.3975376526       13.1555356565       14.3559221999
C                50.9896805391       13.1020204028       12.8333586486
O                50.5823142937       14.1246123508       12.2824285062
C                52.8152016314       13.7241704252       14.5990261102
C                53.6613229264       13.4193296811       13.3961998750
C                53.4909818017       13.1843410545       15.8302595077
C                55.1166224055       13.5973106955       13.7449856049
H                51.7423461468       11.3478389657       15.5041463951
H                50.6895611479       13.9104972964       14.7391461952
H                52.7180115885       14.8095871347       14.6968785441
H                53.5205945484       12.3815276561       13.0793082481
H                53.4004432695       14.0628075867       12.5536422218
H                54.3331414295       13.8037644538       16.1179346068
H                52.7989567947       13.1804218112       16.6746862363
H                53.8391714895       12.1653847814       15.6924936401
H                55.6988042118       13.4574527549       12.8373110099
H                55.3120446571       14.5917013558       14.1393727732
H                55.4768306152       12.8429541543       14.4349374103
N                47.3099201685       14.0643629907       12.9447941641
C                47.2996723655       15.5061404091       12.9648507589
C                47.6332325716       16.1362784428       11.6090396795
O                46.9338581059       17.0290408253       11.1327907266
C                48.3306512920       16.0115928228       13.9561681757
C                48.8129012736       17.4003316588       13.6254296651
C                48.0582513204       18.5151211343       13.9617671522
C                50.0692517559       17.5998282061       13.0715341379
C                48.5726751385       19.7956677981       13.8568494829
C                50.5966608987       18.8767903241       12.9951007303
C                49.8700853925       19.9743063634       13.4199107819
H                47.8982398805       13.5751296690       13.6088844250
H                46.2899164773       15.8554754300       13.2261032315
H                47.9256208523       15.9852062164       14.9689551370
H                49.1835197239       15.3315745699       13.9075406432
H                47.0604140027       18.3700909411       14.3508448601
H                50.6671467877       16.7469905767       12.7815469097
H                47.9791534514       20.6441846493       14.1571034670
H                51.6041140267       19.0143552342       12.6391375023
H                50.3106973695       20.9587673367       13.3858389722
N                66.2490065682       27.2922679994       10.6626113339
C                66.0885422141       25.8520980557       10.7240172917
C                66.3731953097       25.3207221959        9.2687349284
O                67.4956811753       25.5060350956        8.8303103785
H                66.8814758325       27.5573270131        9.9164112763
H                66.8749439409       25.4587165064       11.3737203839
H                65.0930357030       25.6555936372       11.1102103350
N                65.3673987865       24.6406397816        8.6516658197
C                65.2330710122       24.2420238387        7.2116920919
C                63.9784721393       23.3651117291        6.9915990467
O                63.8141959766       22.2441387852        7.4409455755
C                66.4930103567       23.5202914054        6.6253685716
C                66.5113128532       23.6168240244        5.0799361756
C                66.6329511358       22.0455971756        7.0833962653
C                67.9213642695       23.7547823916        4.4935867882
H                64.4497598561       24.7855411992        9.0525175958
H                65.1063214059       25.1646505934        6.6437082919
H                67.3476709547       24.0933667928        6.9941693043
H                66.0363569116       22.7351959063        4.6422269289
H                65.9214016738       24.4591392503        4.7426235502
H                67.5073975503       21.6136393792        6.6024139882
H                66.6835448747       21.9779120222        8.1642493358
H                65.7824215365       21.4569573221        6.7528041919
H                67.8444552188       23.9232052005        3.4214964173
H                68.4601561035       24.5875268931        4.9380245300
H                68.4985477796       22.8437350052        4.6338596171
N                63.0059797902       23.9520362584        6.2798232870
C                61.9349607831       23.1053943487        5.8335111105
C                62.1599302333       22.7927546928        4.3579212593
O                63.2476975209       22.9164024356        3.8305556633
C                60.5643467191       23.7304602816        6.1408835819
C                60.5901522785       24.5866835420        7.3809971531
C                60.9252256944       23.7554110606        8.6053089548
C                61.3981155677       24.7385106914        9.6659379109
N                61.7806142229       24.1374419914       10.9882976791
H                63.1763105609       24.7926350664        5.7492110789
H                62.0423053570       22.1547980854        6.3751439066
H                60.2481040498       24.3473612735        5.2962817476
H                59.8374117467       22.9296024252        6.2741279347
H                61.3175678080       25.3901375601        7.2582676571
H                59.6115641207       25.0522330341        7.4968611129
H                60.0438103030       23.2030005621        8.9275208376
H                61.7099849845       23.0347935978        8.3803970317
H                62.2589990861       25.2917757625        9.2795384685
H                60.6058084302       25.4661715918        9.8518654588
H                62.0360770394       24.8905606825       11.6445544699
H                60.9703205352       23.6218116503       11.3727096590
H                62.5449075086       23.4525314496       10.8734673604
H                54.1917187047       16.3679326248        6.4382714371
H                58.9667934659       16.0647289937        6.3651357320
H                58.5327048581       19.2598941196        5.7400722124
H                61.9817229477       10.4127638052       20.9114204404
H                53.9336792045        9.2281266877       16.3283197556
H                51.6797214219        7.8584979058       14.2783580182
H                50.4984847135       12.1447081288       15.7668192335
H                51.0633385878       12.2435126885       12.3258756476
H                46.4795270761       13.7557883536       13.1036305752
H                48.4315766989       15.8228249586       11.0948475290
H                65.4495869046       27.6774966650       10.5125211058
H                61.3988348203       22.4749652364        3.7924624776
