 255 
 
N                54.7900000000       56.2000000000      190.1130000000
C                53.6520000000       55.2880000000      189.9230000000
C                53.0310000000       55.4470000000      188.5280000000
O                52.5860000000       54.4680000000      187.9050000000
C                52.5880000000       55.5150000000      191.0000000000
H                54.6960000000       56.7770000000      190.7440000000
H                53.9800000000       54.3800000000      190.0120000000
H                51.8660000000       54.8800000000      190.8700000000
H                52.9890000000       55.3850000000      191.8740000000
H                52.2490000000       56.4210000000      190.9240000000
N                55.4990000000       51.8570000000      188.7350000000
C                55.9770000000       51.3370000000      190.0180000000
C                55.4140000000       52.1670000000      191.1640000000
O                55.6950000000       53.3720000000      191.2670000000
C                57.4970000000       51.3250000000      190.0520000000
C                58.0370000000       50.0790000000      189.3650000000
C                59.3160000000       50.3920000000      188.5980000000
C                59.6680000000       49.2270000000      187.7120000000
N                59.7550000000       47.9460000000      188.5240000000
H                55.8720000000       52.6000000000      188.5140000000
H                55.6510000000       50.4300000000      190.1330000000
H                57.8380000000       52.1060000000      189.5890000000
H                57.8000000000       51.3270000000      190.9740000000
H                58.2360000000       49.4030000000      190.0320000000
H                57.3770000000       49.7430000000      188.7390000000
H                59.1830000000       51.1780000000      188.0440000000
H                60.0440000000       50.5440000000      189.2200000000
H                58.9840000000       49.1160000000      187.0330000000
H                60.5290000000       49.3860000000      187.2930000000
H                59.9520000000       47.2610000000      187.9920000000
H                60.3890000000       48.0220000000      189.1440000000
H                58.9770000000       47.7860000000      188.9250000000
N                54.6040000000       51.5110000000      192.0000000000
C                53.7580000000       52.1730000000      192.9720000000
C                54.0420000000       51.6580000000      194.3690000000
O                53.4220000000       52.1350000000      195.3290000000
C                52.2680000000       51.9680000000      192.6270000000
O                51.8780000000       50.6090000000      192.7680000000
H                54.5310000000       50.6550000000      192.0170000000
H                53.9120000000       53.1300000000      192.9480000000
H                51.7310000000       52.5110000000      193.2260000000
H                52.1190000000       52.2420000000      191.7090000000
H                51.1050000000       50.4990000000      192.4580000000
N                54.9580000000       50.6960000000      194.5120000000
C                55.1950000000       50.1150000000      195.8240000000
C                55.7830000000       51.1050000000      196.8130000000
O                55.3870000000       51.1410000000      197.9730000000
H                55.4420000000       50.3730000000      193.8790000000
H                54.3550000000       49.7890000000      196.1850000000
H                55.8110000000       49.3710000000      195.7370000000
N                56.7580000000       51.8940000000      196.3780000000
C                57.3370000000       52.9100000000      197.2450000000
C                56.3230000000       53.9960000000      197.5930000000
O                56.1900000000       54.3740000000      198.7530000000
C                58.6180000000       53.4660000000      196.5860000000
C                59.6730000000       52.3890000000      196.1600000000
C                59.4580000000       51.7890000000      194.7860000000
O                58.7020000000       52.3300000000      193.9350000000
O                59.9960000000       50.6900000000      194.5800000000
H                57.1020000000       51.8610000000      195.5900000000
H                57.6010000000       52.5170000000      198.0920000000
H                58.3640000000       53.9540000000      195.7870000000
H                59.0510000000       54.0630000000      197.2150000000
H                60.5510000000       52.8010000000      196.1620000000
H                59.6470000000       51.6620000000      196.8020000000
N                55.5590000000       54.4690000000      196.6270000000
C                54.4900000000       55.3960000000      196.9480000000
C                53.5450000000       54.8350000000      198.0050000000
O                53.0570000000       55.5870000000      198.8450000000
C                53.7040000000       55.7400000000      195.6890000000
C                52.5140000000       56.6980000000      195.8010000000
C                52.9190000000       58.1100000000      196.0520000000
C                51.7190000000       56.6080000000      194.4940000000
H                55.6360000000       54.2730000000      195.7930000000
H                54.8910000000       56.2070000000      197.2990000000
H                54.3220000000       56.1430000000      195.0600000000
H                53.3550000000       54.9100000000      195.3280000000
H                51.9730000000       56.4390000000      196.5630000000
H                52.1230000000       58.6630000000      196.0980000000
H                53.4020000000       58.1550000000      196.8920000000
H                53.4880000000       58.4090000000      195.3260000000
H                50.9760000000       57.2300000000      194.5330000000
H                52.3030000000       56.8360000000      193.7530000000
H                51.3880000000       55.7030000000      194.3870000000
N                53.2680000000       53.5260000000      197.9960000000
C                52.3580000000       52.9670000000      199.0050000000
C                52.9640000000       53.0290000000      200.4080000000
O                52.2790000000       53.4000000000      201.3730000000
C                52.0100000000       51.5380000000      198.6360000000
C                50.9130000000       51.4180000000      197.5670000000
C                50.9610000000       50.0200000000      196.8610000000
C                49.5560000000       49.4830000000      196.5900000000
N                49.5310000000       48.4290000000      195.5450000000
H                53.5840000000       52.9560000000      197.4350000000
H                51.5430000000       53.4930000000      199.0160000000
H                52.8060000000       51.1030000000      198.2910000000
H                51.6990000000       51.0780000000      199.4310000000
H                50.0430000000       51.5210000000      197.9850000000
H                51.0410000000       52.1050000000      196.8950000000
H                51.4240000000       50.1040000000      196.0130000000
H                51.4240000000       49.3880000000      197.4320000000
H                49.2010000000       49.1010000000      197.4080000000
H                48.9910000000       50.2120000000      196.2920000000
H                48.6960000000       48.1540000000      195.4090000000
H                49.8570000000       48.7500000000      194.7810000000
H                50.0260000000       47.7340000000      195.8000000000
N                54.2560000000       52.6790000000      200.5220000000
C                55.0240000000       52.8550000000      201.7530000000
C                55.0020000000       54.3050000000      202.2400000000
O                54.7690000000       54.5870000000      203.4290000000
C                56.4910000000       52.4270000000      201.5480000000
O                56.6310000000       51.1570000000      200.8910000000
C                57.1930000000       52.3100000000      202.8720000000
H                54.7170000000       52.3310000000      199.8850000000
H                54.6160000000       52.2870000000      202.4250000000
H                56.8950000000       53.1090000000      200.9890000000
H                57.4440000000       50.9570000000      200.8220000000
H                58.1160000000       52.0450000000      202.7360000000
H                57.1750000000       53.1630000000      203.3340000000
H                56.7520000000       51.6440000000      203.4240000000
N                52.9370000000       56.6920000000      201.7230000000
C                51.6200000000       57.0540000000      202.2380000000
C                51.3740000000       56.5760000000      203.6620000000
O                50.8680000000       57.3350000000      204.4950000000
H                52.9180000000       56.1950000000      201.0210000000
H                51.5290000000       58.0190000000      202.2240000000
H                50.9390000000       56.6640000000      201.6670000000
N                51.7090000000       55.3020000000      203.9540000000
C                51.7290000000       54.8270000000      205.3420000000
C                52.6510000000       55.6670000000      206.2160000000
O                52.2580000000       56.1130000000      207.3090000000
C                52.1890000000       53.3810000000      205.4410000000
C                51.1750000000       52.3680000000      204.9920000000
C                51.9750000000       51.1260000000      204.6590000000
C                50.1640000000       52.0070000000      206.0070000000
H                51.9260000000       54.7070000000      203.3730000000
H                50.8150000000       54.8920000000      205.6580000000
H                52.9780000000       53.2700000000      204.8880000000
H                52.4040000000       53.1890000000      206.3670000000
H                50.6680000000       52.7360000000      204.2520000000
H                51.3700000000       50.4350000000      204.3480000000
H                52.6170000000       51.3410000000      203.9650000000
H                52.4380000000       50.8260000000      205.4570000000
H                49.5650000000       51.3420000000      205.6330000000
H                50.6140000000       51.6450000000      206.7860000000
H                49.6650000000       52.8020000000      206.2520000000
O                56.1800000000       54.3220000000      193.9080000000
H                56.7330000000       54.9090000000      194.1450000000
H                55.7460000000       54.6340000000      193.2640000000
O                54.6330000000       48.5190000000      191.8340000000
H                55.3580000000       48.7280000000      192.2030000000
H                54.0740000000       48.4160000000      192.4520000000
O                46.4549974365       48.5190000000      194.5117450867
H                45.7299974365       48.7280000000      194.1427450867
H                47.0139974365       48.4160000000      193.8937450867
N                46.2979974365       56.2000000000      196.2327450867
C                47.4359974365       55.2880000000      196.4227450867
C                48.0569974365       55.4470000000      197.8177450867
O                48.5019974365       54.4680000000      198.4407450867
C                48.4999974365       55.5150000000      195.3457450867
H                46.3919974365       56.7770000000      195.6017450867
H                47.1079974365       54.3800000000      196.3337450867
H                49.2219974365       54.8800000000      195.4757450867
H                48.0989974365       55.3850000000      194.4717450867
H                48.8389974365       56.4210000000      195.4217450867
N                48.0999974365       56.6690000000      198.3347450867
C                48.7229974365       56.8560000000      199.6427450867
C                47.7899974365       56.4730000000      200.7847450867
O                48.1109974365       55.6110000000      201.6127450867
C                49.1929974365       58.3010000000      199.8007450867
C                50.3479974365       58.4710000000      198.9057450867
S                51.0579974365       59.9710000000      199.4577450867
C                49.7309974365       61.0230000000      198.9097450867
H                47.7879974365       57.3800000000      197.9647450867
H                49.5009974365       56.2780000000      199.6817450867
H                48.4889974365       58.9170000000      199.5437450867
H                49.4639974365       58.4700000000      200.7167450867
H                50.9789974365       57.7410000000      199.0027450867
H                50.0679974365       58.5480000000      197.9807450867
H                49.9829974365       61.9490000000      199.0517450867
H                49.5709974365       60.8650000000      197.9667450867
H                48.9319974365       60.8150000000      199.4197450867
N                46.0599974365       52.9580000000      200.0447450867
C                46.9969974365       51.9700000000      199.5757450867
C                46.5089974365       51.2440000000      198.3627450867
O                46.9709974365       50.1270000000      198.0967450867
H                46.3379974365       53.7690000000      199.9807450867
H                47.8359974365       52.4050000000      199.3547450867
H                47.1549974365       51.3200000000      200.2787450867
N                46.4839974365       51.5110000000      194.3457450867
C                47.3299974365       52.1730000000      193.3737450867
C                47.0459974365       51.6580000000      191.9767450867
O                47.6659974365       52.1350000000      191.0167450867
C                48.8199974365       51.9680000000      193.7187450867
O                49.2099974365       50.6090000000      193.5777450867
H                46.5569974365       50.6550000000      194.3287450867
H                47.1759974365       53.1300000000      193.3977450867
H                49.3569974365       52.5110000000      193.1197450867
H                48.9689974365       52.2420000000      194.6367450867
H                49.9829974365       50.4990000000      193.8877450867
N                45.5289974365       54.4690000000      189.7187450867
C                46.5979974365       55.3960000000      189.3977450867
C                47.5429974365       54.8350000000      188.3407450867
O                48.0309974365       55.5870000000      187.5007450867
C                47.3839974365       55.7400000000      190.6567450867
C                48.5739974365       56.6980000000      190.5447450867
C                48.1689974365       58.1100000000      190.2937450867
C                49.3689974365       56.6080000000      191.8517450867
H                45.4519974365       54.2730000000      190.5527450867
H                46.1969974365       56.2070000000      189.0467450867
H                46.7659974365       56.1430000000      191.2857450867
H                47.7329974365       54.9100000000      191.0177450867
H                49.1149974365       56.4390000000      189.7827450867
H                48.9649974365       58.6630000000      190.2477450867
H                47.6859974365       58.1550000000      189.4537450867
H                47.5999974365       58.4090000000      191.0197450867
H                50.1119974365       57.2300000000      191.8127450867
H                48.7849974365       56.8360000000      192.5927450867
H                49.6999974365       55.7030000000      191.9587450867
N                47.8199974365       53.5260000000      188.3497450867
C                48.7299974365       52.9670000000      187.3407450867
C                48.1239974365       53.0290000000      185.9377450867
O                48.8089974365       53.4000000000      184.9727450867
C                49.0779974365       51.5380000000      187.7097450867
C                50.1749974365       51.4180000000      188.7787450867
C                50.1269974365       50.0200000000      189.4847450867
C                51.5319974365       49.4830000000      189.7557450867
N                51.5569974365       48.4290000000      190.8007450867
H                47.5039974365       52.9560000000      188.9107450867
H                49.5449974365       53.4930000000      187.3297450867
H                48.2819974365       51.1030000000      188.0547450867
H                49.3889974365       51.0780000000      186.9147450867
H                51.0449974365       51.5210000000      188.3607450867
H                50.0469974365       52.1050000000      189.4507450867
H                49.6639974365       50.1040000000      190.3327450867
H                49.6639974365       49.3880000000      188.9137450867
H                51.8869974365       49.1010000000      188.9377450867
H                52.0969974365       50.2120000000      190.0537450867
H                52.3919974365       48.1540000000      190.9367450867
H                51.2309974365       48.7500000000      191.5647450867
H                51.0619974365       47.7340000000      190.5457450867
H                55.5274108720       55.7232218928      190.3102507093
H                52.9789015271       56.3511544315      188.1039828858
H                55.6734958567       51.2595650982      188.0849055960
H                55.1773398604       55.0509542407      201.5974984792
H                53.3898088768       57.4385285585      201.5046900542
H                53.5831936345       55.8653735995      205.9132411144
H                45.5605865645       55.7232218928      196.0354943773
H                46.9003438668       56.9206076881      200.8750992980
H                45.3000064049       52.9024826950      199.5658594419
H                45.8157480354       51.6615111011      197.7753016865
H                46.7048225796       51.7867462182      195.1735133389
H                46.3638229739       50.9401826084      191.8375466857
H                44.7403055489       54.8203175174      189.4646956656
H                47.1691095820       52.7693511324      185.7936213521
