 355 
 
N                64.8425965550        2.8484706391       23.4613182738
C                64.7788904468        2.9722173766       24.9045888406
C                64.8730707772        1.6662857500       25.6945914331
O                65.1674418325        1.6697844175       26.8802104055
C                63.4390957219        3.6246048488       25.3068083541
C                63.2891756382        5.0720133295       24.8706460527
C                61.8285095988        5.6166661959       25.0940413642
O                60.9063461698        4.7801050162       25.1273949729
O                61.7365820111        6.8532016914       25.2013633651
H                63.9526692432        2.7442572454       22.9875702131
H                65.6113377908        3.6099608662       25.2216939703
H                62.6131330426        3.0595036466       24.8640804983
H                63.3322717463        3.5768478252       26.3921881743
H                63.9664861442        5.7324445630       25.4112842230
H                63.4804852576        5.1808961457       23.8015362330
N                64.4872491723        0.5622517253       25.0384298386
C                64.1238687740       -0.6535968434       25.7257628970
C                65.1430056322       -1.7965133731       25.6210585969
O                65.8913579220       -1.9780824499       24.6788733797
C                62.8051409244       -1.2100102021       25.1735706940
C                61.5900357104       -0.4659312212       25.6220607304
C                61.5100600771        0.7481576981       26.2394104600
C                60.2494164854       -0.9548669490       25.5282034361
N                60.2096765330        1.0500157225       26.5302172889
C                59.4112449305        0.0306609548       26.1014465925
C                59.6919893536       -2.1284439304       25.0248988973
C                58.0353362676       -0.1500814160       26.1817149791
C                58.3306534946       -2.2998935237       25.1069539148
C                57.5136035532       -1.3234083888       25.6824516925
H                64.4463593259        0.5951891226       24.0314704288
H                64.0127279436       -0.3780527740       26.7790872516
H                62.8900481369       -1.2233415893       24.0834512540
H                62.6972309279       -2.2548834609       25.4714853648
H                62.2912688411        1.4242159179       26.5207963757
H                59.9084014696        1.9325635808       26.9059479917
H                60.3295461697       -2.8792331794       24.5914156595
H                57.4008577025        0.6061678445       26.6187412559
H                57.8738466800       -3.1972374850       24.7241242720
H                56.4505733735       -1.4963397805       25.7441890370
N                65.0144868944       -2.6238695342       26.6680187411
C                65.5155443715       -3.9658285169       26.8179261529
C                64.5658348638       -4.6300067810       27.8281625699
O                63.9788325262       -3.9389260316       28.6537477080
C                66.9537015566       -3.9887494327       27.3597276444
O                67.3158187545       -5.3265866920       27.5703866355
H                64.3987371575       -2.3648293870       27.4339517773
H                65.5002619174       -4.4880380842       25.8570963262
H                67.6050330888       -3.5023886888       26.6218035278
H                66.9883956368       -3.4074749506       28.2920079935
H                68.2324325731       -5.3599309713       27.8684591543
N                64.3963943859       -5.9443483466       27.7020984377
C                63.5088102442       -6.6588810838       28.6147566400
C                63.8230870504       -8.1572804883       28.5024995291
O                63.3370744002       -8.8500443204       27.6288611406
C                62.0442546674       -6.3768302417       28.2342410784
C                61.0677426828       -6.9738899997       29.2070222313
C                60.9251419631       -6.4384042976       30.4816899028
C                60.2715174328       -8.0486900176       28.8374495771
C                60.0044934214       -6.9708557201       31.3675139388
C                59.3490290495       -8.5815197539       29.7205188764
C                59.2138281955       -8.0434437523       30.9880118938
H                65.0223363195       -6.4926545747       27.1080480713
H                63.6871994769       -6.2896375328       29.6317064782
H                61.9133548654       -5.2935925062       28.2143857208
H                61.8670777466       -6.7764315077       27.2368770804
H                61.5214188897       -5.5849742290       30.7748187164
H                60.3742013981       -8.4625349869       27.8484796847
H                59.8894066332       -6.5422276106       32.3531024716
H                58.7276457914       -9.4128541538       29.4259831918
H                58.4897924633       -8.4488011077       31.6791466798
N                64.7411654010       -8.5792311521       29.3820420454
C                65.1286680148       -9.9699224313       29.6126115673
C                65.0115125012      -10.7172833127       28.2761081143
O                64.2409254962      -11.6243109704       28.0435598571
C                64.3259401412      -10.5514909119       30.7880523942
C                64.2625780063       -9.5123989481       31.8617286866
C                63.1637593165       -8.8051568984       32.2531874257
C                65.3814107816       -8.9211455347       32.5325113537
N                63.5191765828       -7.8218962587       33.1354640253
C                64.8698928592       -7.8583965945       33.3185828538
C                66.7542303858       -9.1705594980       32.5388258846
C                65.7006776163       -7.0515296401       34.0859376139
C                67.5718586806       -8.3625713243       33.2959375286
C                67.0519093853       -7.3144144646       34.0584251314
H                65.0448837255       -7.9472347584       30.1077669284
H                66.1859776976       -9.9583286619       29.8966220451
H                63.3187125135      -10.8108341938       30.4635766592
H                64.8277050875      -11.4517717386       31.1441486452
H                62.1381713349       -8.9275022230       31.9690951336
H                62.8838309988       -7.1542340172       33.5358078076
H                67.1755302230       -9.9866148835       31.9749918981
H                65.3042684114       -6.2431407366       34.6815199377
H                68.6366327673       -8.5359974129       33.3102032784
H                67.7264478841       -6.7034170887       34.6394503391
N                65.9550546141      -10.2711882214       27.4107026383
C                65.7794088267      -10.2461061902       25.9746722324
C                65.6399907976       -8.7705184439       25.5742923611
O                65.9308998584       -7.8832908546       26.3649735463
H                66.4719441787       -9.4541567263       27.7243907371
H                66.6647670508      -10.6809758748       25.4989139653
H                64.8829618462      -10.8144159688       25.7283776447
N                65.2212360607       -8.5200414803       24.3285684559
C                65.0497156865       -7.1544408214       23.8596868483
C                63.7468779121       -7.1184867184       23.0628873000
O                63.4839572023       -7.9897107974       22.2499860041
C                66.3074944262       -6.7022988940       23.0765253901
C                66.2858422043       -5.1937095281       22.8068338457
C                66.5049510726       -7.5032369141       21.7907936180
C                67.6875585541       -4.6389014315       22.5636870863
H                64.9079595988       -9.2340989655       23.6827224928
H                64.9604701739       -6.5111432543       24.7394895377
H                67.1413066759       -6.8952739624       23.7610297951
H                65.6476725705       -4.9609689320       21.9511790758
H                65.8679583247       -4.6606960737       23.6643105513
H                67.3672814149       -7.1053189260       21.2641985274
H                66.6313951035       -8.5553194871       22.0250771054
H                65.6409638410       -7.3893783383       21.1418437298
H                67.6684078233       -3.5540067383       22.6401470957
H                68.3781625574       -4.9985796221       23.3223306774
H                68.0570667533       -4.9005964211       21.5767096815
N                62.8964771303       -6.1660505948       23.4575901829
C                61.7089243546       -5.7316921971       22.7509499345
C                61.8237060951       -4.2093867856       22.7196280444
O                62.6177261628       -3.6460027690       23.4607156668
C                60.3797257362       -6.1046495519       23.4671035768
C                60.5165620814       -7.2202555112       24.4993052326
C                60.8387951129       -8.5766588453       23.8733420764
C                61.2876874730       -9.5530288193       24.9547723445
N                61.7724657360      -10.8225338817       24.3407484521
H                63.2317257099       -5.4497212414       24.0951659847
H                61.7202086664       -6.1315206445       21.7337532299
H                59.9989764821       -5.2164197293       23.9745794939
H                59.6535941061       -6.3955575264       22.7102955346
H                61.2998345244       -6.9385819325       25.2027277951
H                59.5780221011       -7.2838745520       25.0497863394
H                59.9496368800       -8.9520456537       23.3673804773
H                61.6277663381       -8.4424888955       23.1358259682
H                62.0992178843       -9.1272474162       25.5495223151
H                60.4554805342       -9.7822192959       25.6204398035
H                62.1606626348      -11.4370119295       25.0731154616
H                60.9923847833      -11.3090554893       23.8707481127
H                62.4806914803      -10.6122396135       23.6197909321
N                60.9841803695       -3.5472958915       21.9032123590
C                61.2486979696       -2.1483404004       21.6655222076
C                60.0831015578       -1.1620760675       21.7765479341
O                59.0232891179       -1.2891051837       21.1900199974
C                61.8512419949       -1.9655163067       20.2561695469
C                63.2861756781       -2.4006918743       20.1854434496
C                63.6806739539       -3.4869693768       19.4180943379
C                64.2548607209       -1.6611037383       20.8511350156
C                65.0187013760       -3.7995086729       19.2777961719
C                65.5929651015       -1.9688378234       20.7250596468
C                65.9861139320       -3.0258325055       19.9110987284
O                67.2938293067       -3.3265000880       19.7108475168
H                60.4444808856       -4.0661796239       21.2215751175
H                62.0054937814       -1.8759850426       22.4060805668
H                61.2461804877       -2.5236155255       19.5442342099
H                61.7989446721       -0.9140885515       19.9773475890
H                62.9381874249       -4.0715758191       18.8984820023
H                63.9669129219       -0.8140821169       21.4578201965
H                65.3330538312       -4.6170105498       18.6512983959
H                66.3303050270       -1.3759007224       21.2460971301
H                67.8472700692       -2.6815131115       20.1703591732
N                60.4537707979       -0.0246936292       22.4164736839
C                59.6658526654        1.1846652040       22.4290885675
C                59.4412671740        1.7481227948       21.0325902367
O                58.5283282409        2.5405857100       20.8185166088
H                61.2099933807       -0.0676468517       23.0799356744
H                58.6759203884        1.0190519629       22.8715774357
H                60.1661355720        1.9458623109       23.0318769184
N                60.2111068984        1.2715310349       20.0536115512
C                59.9571615615        1.5313512239       18.6433376915
C                58.4645420161        1.3421537823       18.3545449104
O                57.8748777019        2.0519266529       17.5430282595
C                60.8522776418        0.6143812218       17.7977548325
C                61.2037948956        1.1477485795       16.4028523801
C                62.3830463321        0.3350733365       15.8652246497
C                60.0258761307        1.0675154271       15.4390459006
H                61.0824306159        0.8253999798       20.3027851493
H                60.1896654216        2.5773220388       18.4017790930
H                61.7968059031        0.5133701560       18.3362769944
H                60.4000776732       -0.3756067506       17.7126926477
H                61.5091230667        2.1962846894       16.5065016232
H                62.6473913088        0.6595630432       14.8634051569
H                63.2557566238        0.4589584306       16.5014252670
H                62.1341845928       -0.7232921516       15.8387159700
H                60.3417103968        1.3934200401       14.4525766979
H                59.6583974929        0.0455392017       15.3974425334
H                59.2213442541        1.7170167632       15.7687165498
N                57.8461777406        0.3569648368       19.0078523887
C                56.4036672168        0.2107587648       18.9045880348
C                55.7114647215        1.5417887222       19.2138915442
O                54.9734247881        2.0870057082       18.3974018322
C                55.9183910071       -0.8949672768       19.8431629156
C                54.4153157124       -0.9335799542       19.9410770063
C                53.6248655377       -0.9684909241       18.7988435115
C                53.7960072231       -0.9485312848       21.1839710814
C                52.2451336051       -0.9998632140       18.8973627588
C                52.4162211908       -0.9977795569       21.2843551929
C                51.6372268126       -1.0162534698       20.1407162420
H                58.3281319887       -0.2329131351       19.6826581993
H                56.1504200153       -0.0307381200       17.8662127651
H                56.2964094513       -1.8485001333       19.4674058475
H                56.3507808777       -0.7397558775       20.8322388484
H                54.0823327802       -0.9674215359       17.8226433624
H                54.3976270285       -0.9285500155       22.0800674280
H                51.6471589942       -1.0124343772       17.9992455872
H                51.9484704527       -1.0183714631       22.2567086610
H                50.5617490888       -1.0453552018       20.2219968475
N                59.0204294921       -5.8600979524       16.3015350943
C                59.8669341389       -5.3621499718       17.3584123627
C                59.5177779629       -5.8944090419       18.7529307420
O                60.3152442840       -5.7693807488       19.6733077556
C                59.8206060337       -3.8293537786       17.3918964269
C                60.4805764928       -3.2574951613       16.1450570871
O                61.6904145168       -3.2591934330       15.9824226624
N                59.6149695922       -2.7391931455       15.2650928721
H                58.1867183567       -5.3208828220       16.0928729480
H                60.8924486790       -5.6912701479       17.1397431221
H                58.7851735547       -3.5001351047       17.4582177008
H                60.3820989304       -3.4978356923       18.2632090276
H                59.9477102400       -2.4562321396       14.3575483616
H                58.6184882912       -2.8394875454       15.4150784693
N                58.3219819864       -6.4721878882       18.8849911058
C                57.8897633697       -7.0417496859       20.1450270221
C                57.4840048726       -8.5064758921       19.9701455704
O                58.0633121573       -9.3946801417       20.5814388329
C                56.7614708225       -6.2147431614       20.8039052950
C                57.3066406501       -4.8304244684       21.1809636893
C                56.2151500144       -6.9555415798       22.0218307391
C                56.2830120763       -3.9197564654       21.8480859302
H                57.6437432835       -6.4243655436       18.1348128491
H                58.7754840318       -7.0378042438       20.7909716113
H                55.9645698844       -6.0939658468       20.0647498445
H                58.1495932848       -4.9575463424       21.8610649139
H                57.6729462941       -4.3426489704       20.2751580311
H                55.3493106429       -6.4396423501       22.4241053192
H                55.9035765829       -7.9599241143       21.7519051643
H                56.9765785819       -7.0230506011       22.7938122295
H                56.7314357406       -2.9489807639       22.0428806989
H                55.4141296126       -3.7766468993       21.2113603748
H                55.9569833230       -4.3362924191       22.7954994148
N                60.2766058266      -11.0239557662       18.4605473717
C                61.2923019469      -11.2242303525       19.4925895952
C                60.8160008438      -12.0743504546       20.6691821319
O                61.5698687917      -12.8765864977       21.1974669435
C                61.6514460153       -9.8004572137       19.9232001859
C                61.4847810875       -9.0210689531       18.6259307025
C                60.2153600577       -9.6310644958       18.0395942645
H                62.1526191417      -11.7458306951       19.0543858326
H                60.9189429114       -9.4462803321       20.6475427037
H                62.6511932176       -9.7160607546       20.3360810016
H                61.3889736781       -7.9507660335       18.7812689460
H                62.3214809009       -9.1962552143       17.9505126930
H                59.3253796700       -9.1529870074       18.4539418884
H                60.1890043663       -9.5290229524       16.9572473575
N                59.6052089964      -11.7791740769       21.1705613688
C                59.0256726054      -12.6271992979       22.1979029023
C                59.0207324559      -14.0924105193       21.7685641360
O                59.6815690502      -14.9264350889       22.3754635408
C                57.5940556561      -12.2291569033       22.5542840458
C                57.4588222034      -10.9403026324       23.3713033754
C                55.9924814118      -10.5119657844       23.3601948437
C                57.9118470941      -11.1331644728       24.8166161709
H                58.9821365448      -11.1363757794       20.6939543191
H                59.6782950705      -12.6116807658       23.0801124720
H                57.0449957683      -12.1143602266       21.6201627386
H                57.1403126548      -13.0540948592       23.1075458833
H                58.0460424066      -10.1665337558       22.8707670478
H                55.8416384655       -9.6192548871       23.9606346449
H                55.6630344581      -10.3040214616       22.3445497855
H                55.3610686138      -11.3041344981       23.7577092640
H                57.9916775409      -10.1705420011       25.3120027686
H                57.1720384069      -11.7258952298       25.3496458949
H                58.8555493038      -11.6641779408       24.8764551856
N                62.0773331567      -16.2654821030       21.6374516737
C                62.8206043443      -16.5375885942       22.8418512667
C                62.0831016040      -17.4052996431       23.8682310878
O                62.6808509299      -17.7801077673       24.8685185583
C                63.2239665199      -15.2306130175       23.5394531631
C                64.1985446131      -14.4058908479       22.6993744217
C                64.8599012145      -13.3170319161       23.5487741417
C                65.7420406493      -12.3896953875       22.7185480880
N                66.9583064051      -13.1079415755       22.2476104225
H                61.2144022142      -15.7415904445       21.7456229078
H                63.7098845077      -17.1042454910       22.5399960040
H                62.3062774783      -14.6699505789       23.7159470007
H                63.6751006738      -15.5058568850       24.4932608584
H                64.9367985839      -15.0941751441       22.2870025690
H                63.6374365587      -13.9578696455       21.8791746693
H                64.0643635415      -12.7315052500       24.0005847654
H                65.4360097518      -13.7780716172       24.3512219783
H                65.1815335165      -12.0482638502       21.8472059188
H                66.0709698249      -11.5343595144       23.3111130437
H                67.5262853288      -12.5099683007       21.6305477112
H                67.5331789812      -13.4067363349       23.0502619103
H                66.6756770959      -13.9491524774       21.7231650667
N                74.3724441735       -4.7111692921       21.4075370004
C                73.1433810206       -3.9355578115       21.3647947065
C                72.7486338703       -3.4597694107       22.7788351931
O                71.6395203228       -3.6208357728       23.2443789587
C                72.0531347263       -4.8065756219       20.7275068437
C                71.7346641417       -6.0408397370       21.5758324443
C                70.8002799601       -7.0378498225       20.8912031943
C                70.6582029831       -8.2522996951       21.8054963561
N                69.7049416262       -9.2556614328       21.2587987415
H                74.2791481101       -5.7140816257       21.4939882306
H                73.3516880974       -3.0491237569       20.7536737269
H                71.1558844011       -4.1992834755       20.6210914595
H                72.4031540280       -5.1055690044       19.7382829478
H                72.6574738674       -6.5681736009       21.8299588642
H                71.2790427889       -5.7002933040       22.5040108731
H                69.8332003599       -6.5632504590       20.7287486612
H                71.2229963577       -7.3291575998       19.9292161121
H                71.6324468443       -8.7283994710       21.9287131485
H                70.3017933829       -7.9250269843       22.7829111815
H                69.6326172341      -10.0610172979       21.8983699263
H                68.7698602162       -8.8313777604       21.1413427702
H                70.0362830067       -9.5960150817       20.3442077226
N                60.7152711062       -4.5533368573       39.9124602129
C                59.3245798270       -4.1658342435       39.6818906910
C                58.5772189456       -4.2829897571       41.0183941440
O                57.6701912879       -5.0535767621       41.2509424012
C                58.7430113464       -4.9685621171       38.5064498641
C                59.7821033102       -5.0319242520       37.4327735717
C                60.4893453599       -6.1307429418       37.0413148326
C                60.3733567236       -3.9130914767       36.7619909046
N                61.4726059996       -5.7753256755       36.1590382330
C                61.4361056638       -4.4246093991       35.9759194045
C                60.1239427603       -2.5402718725       36.7556763737
C                62.2429726182       -3.5938246420       35.2085646444
C                60.9319309340       -1.7226435777       35.9985647297
C                61.9800877937       -2.2425928730       35.2360771269
H                61.3472674999       -4.2496185328       39.1867353299
H                59.3361735964       -3.1085245607       39.3978802132
H                58.4836680645       -5.9757897448       38.8309255991
H                57.8427305197       -4.4667971708       38.1503536131
H                60.3670000353       -7.1563309234       37.3254071247
H                62.1402682411       -6.4106712595       35.7586944507
H                59.3078873748       -2.1189720353       37.3195103602
H                63.0513615217       -3.9902338469       34.6129823206
H                60.7585048454       -0.6578694910       35.9842989799
H                62.5910851696       -1.5680543742       34.6550519192
H                65.2275791116        3.5838409610       23.1134405354
H                55.8559241617        1.9869849674       20.0975949862
H                59.4877216040       -5.8939617110       15.5331007588
H                56.7372400113       -8.7478671211       19.3504097263
H                60.5730322349      -11.3568581576       17.6786858863
H                58.4734500984      -14.3814346602       20.9831043553
H                62.5867798121      -15.7850053413       21.0721144409
H                61.1274781287      -17.6571811334       23.7154584195
H                74.8393255968       -4.5762540648       20.6500281767
H                73.4204964002       -2.9953581055       23.3558298901
H                61.0031789344       -4.1935297120       40.6855371177
H                58.8290444779       -3.6929297342       41.7854750203
