 100 
 
N                60.6454241544       96.0198258560      110.4151965095
C                61.3045230532       97.3465267804      110.4924681160
C                60.2572360047       98.4858119133      110.4777516317
O                59.2159630434       98.3351991961      109.7659323485
C                62.2409094711       97.4514931797      109.3003257973
H                60.8385215596       95.4987206189      109.7742914026
H                61.7915901999       97.3343591751      111.2722134481
H                62.7091231890       98.3046653218      109.3556640827
H                62.9390894073       96.7939168712      109.3503692328
H                61.7905293896       97.3647337932      108.4703557709
N                60.5607099919       99.5588854761      111.1576661120
C                59.6583060818      100.6519667799      111.3788204598
C                59.2220952126      101.3352846785      110.1632012401
O                58.1131020935      101.6442531752      109.9011380911
C                60.1130096417      101.5546658191      112.4785120151
C                60.0149487554      101.1354893775      113.8916101828
C                60.8760706418       99.9524903017      114.2182719759
O                61.6463936407       99.4336034052      113.4312296021
N                60.7371753714       99.4681157795      115.4483429897
H                61.4281716066       99.6776360719      111.5829352025
H                58.7518261303      100.1809630528      111.7877305173
H                61.1581917600      101.7823744616      112.2789464019
H                59.6507325549      102.5172967689      112.3390071057
H                60.2157762069      101.9358584094      114.5535219246
H                58.9846621336      100.9034220296      114.0854066902
H                60.1235804799       99.8564284439      116.1189896029
H                61.2444751820       98.6759120950      115.7644222405
N                60.2608388073      101.5962623048      109.2543429380
C                60.0859327582      102.0498105038      107.9479090851
C                60.3414130229      100.9602629708      106.9260949290
O                61.3666191511      100.8960362825      106.2496033853
C                60.7812310127      103.3129925927      107.6820466553
C                59.9916260593      104.5527645724      107.7993649300
O                59.0007197665      104.6119683283      108.4298316917
N                60.4504164305      105.6062619938      107.1256891853
H                61.1621696837      101.4569631499      109.4952397009
H                59.0287759150      102.3394813795      107.8342593523
H                61.6502693961      103.3575187190      108.3210493463
H                61.2524431491      103.2550082988      106.6970045921
H                59.9893300789      106.4869161652      107.1458040287
H                61.2827096268      105.5979623968      106.5923676556
N                59.3664902093       99.9970079245      106.8447278755
C                59.3569303236       98.9960328631      105.8611393990
C                59.0499059558       99.6831902895      104.5991480594
O                57.9948379603      100.2832898207      104.4747038278
C                58.4771193551       97.8391805433      106.0420065915
S                58.2007184479       96.6986269517      104.6045233040
H                58.6612245153       99.9098161489      107.5117182666
H                60.3520411876       98.5590179373      105.8205835331
H                58.7930350440       97.2646327776      106.9232194911
H                57.5170679111       98.2248179876      106.3801638065
H                57.8009103900       95.5828514049      104.7921357930
N                59.9752974878       99.6389699639      103.5838105539
C                59.9438795145      100.2254941275      102.3507829590
C                59.0913962541       99.5308662177      101.3102777757
O                59.2986125373       99.6282010528      100.1523959805
C                61.3212431102      100.5146249754      101.9528657418
C                62.1764305100      100.8486787277      103.0461549444
C                63.6049892667      100.8164622011      102.7816694345
O                64.0324219718      100.3225466092      101.7887103481
N                64.4153083644      101.3345488569      103.7269498329
H                60.7453992771       99.0582344996      103.7060164327
H                59.4161395839      101.2012165387      102.4660365532
H                61.7104538078       99.6964078739      101.4114385068
H                61.3648259831      101.3227706850      101.2257908382
H                61.9108328295      101.8055757934      103.4737967197
H                61.9608947592      100.1775745156      103.8737765812
H                64.0779452702      101.7574243618      104.5511572351
H                65.4063188458      101.3298056112      103.6214813253
N                65.1670859593       96.6284639058      103.8755579139
C                64.6834953792       97.5332513938      104.9445995914
C                65.6075675986       97.5271005175      106.1298475171
O                65.4597772010       98.4110803505      106.9534219594
C                63.2843328663       96.9627575937      105.4473610214
S                62.1891472593       96.8432928951      104.1978414925
H                64.5465292523       95.9559944002      103.6071297587
H                64.4580104407       98.2712205505      104.4924197644
H                63.4331627975       96.1473635703      105.8516700174
H                62.9886114821       97.5043727097      106.1592247179
H                61.2367030040       96.1207701464      104.3018165770
N                60.2608388073      108.5656643862      101.5962623048
C                60.0859327582      109.8720982392      102.0498105038
C                60.3414130229      110.8939123952      100.9602629708
O                61.3666191511      111.5704039389      100.8960362825
C                60.7812310127      110.1379606689      103.3129925927
C                59.9916260593      110.0206423943      104.5527645724
O                59.0007197665      109.3901756325      104.6119683283
N                60.4504164305      110.6943181389      105.6062619938
H                61.1621696837      108.3247676234      101.4569631499
H                59.0287759150      109.9857479719      102.3394813795
H                61.6502693961      109.4989579779      103.3575187190
H                61.2524431491      111.1230027321      103.2550082988
H                59.9893300789      110.6742032955      106.4869161652
H                61.2827096268      111.2276396686      105.5979623968
H                60.8377883511       95.5452403310      111.1553077141
H                58.3186557806       98.9634400057      101.5947064216
H                65.3608935930       97.1093100764      103.1398775748
H                66.3059541692       96.8165446677      106.2156763137
H                59.9229777494      107.9902231450      102.2001805802
H                59.6579931205      111.0446828519      100.2459762592
