 160 
 
N                13.4345564399       10.7117183362       18.7984109314
C                13.5703795786        9.9588887820       17.5604661060
C                12.6289273919       10.4678171306       16.5042274774
O                12.9585017906       10.5234269204       15.3028725966
C                13.2903404621        8.4730273425       17.8017005561
C                14.5072348037        7.7910163632       18.4173110844
C                15.5383516517        7.3910804071       17.3527995982
C                16.9686484877        7.4550431238       17.8957317557
N                17.9330982117        7.2926940869       16.7748661305
H                13.2740486489       10.2347128889       19.6807631481
H                14.5904697228       10.0951660413       17.1754610249
H                12.4344620362        8.3990991493       18.4713458710
H                13.0296510076        7.9899017797       16.8603021442
H                14.9605618163        8.4732647492       19.1346267174
H                14.1853051526        6.9061756182       18.9651760627
H                15.3197893739        6.3843137779       16.9980070199
H                15.4655567878        8.0726522787       16.5055938018
H                17.1444698742        8.4418372869       18.3236962645
H                17.1357493828        6.6860082737       18.6482201327
H                18.8977082751        7.2083172758       17.1025180842
H                17.6969351248        6.4855863243       16.1910533187
H                17.8368717836        8.2219696664       16.2466201384
N                11.3812881110       10.7097764670       16.9192150495
C                10.3901812295       11.1672774792       15.9671456511
C                10.6462446563       12.5729516780       15.4533154754
O                10.3362418330       12.9297344442       14.3064537138
H                11.0963364654       10.5446856081       17.8835746232
H                10.3588102654       10.4989030914       15.0988700734
H                 9.4135954221       11.1519879597       16.4542102873
N                11.2389898766       13.4047764072       16.3057679436
C                11.5303776845       14.7655948361       15.9054573123
C                12.6259487892       14.7014323209       14.8303166937
O                12.5879480346       15.3702545495       13.8002765605
C                11.9903658484       15.5563987860       17.1554107239
C                12.7840508589       16.8511731120       16.8982892028
C                11.9692440304       17.9119100159       16.1736875431
C                13.2452775030       17.4308180848       18.2183100666
H                11.3389314165       13.1443510162       17.2816051909
H                10.6469992978       15.2215293764       15.4438444212
H                11.1050839551       15.7839463133       17.7500544306
H                12.6264444985       14.8847048616       17.7345086796
H                13.6600408332       16.6052116340       16.2879560849
H                12.5359586457       18.8363684022       16.1020554576
H                11.7199369155       17.5893843716       15.1656553443
H                11.0447902363       18.1185529917       16.7086138881
H                13.8429284194       18.3235525592       18.0518066707
H                12.3857648475       17.7039981119       18.8263188056
H                13.8500074690       16.7159118168       18.7739983042
N                13.6343304231       13.8789791643       15.0958635294
C                14.7357261208       13.7677429876       14.1654909383
C                14.2083929881       13.2246142047       12.8353191404
O                14.5722387277       13.6507402318       11.7477334715
C                15.8451293851       12.8880737602       14.7415948062
C                16.8651861067       12.4599543810       13.6626131664
C                16.5243341367       13.6312203184       15.8857111527
H                13.6701624350       13.3843385425       15.9815775636
H                15.1356373486       14.7674329085       13.9471727581
H                15.3781567210       11.9863177979       15.1482325681
H                17.6832639891       11.9194431435       14.1291260647
H                16.4027597648       11.8251271560       12.9132560576
H                17.2761061946       13.3344791401       13.1624084204
H                17.2770236505       12.9998314366       16.3504945117
H                17.0165813287       14.5339739361       15.5286499440
H                15.8066772724       13.9012082425       16.6548182990
N                13.3106057525       12.2169416882       12.9166808179
C                12.8254969431       11.6378767301       11.6593033796
C                12.0484853841       12.6451713436       10.8432432237
O                12.1094803441       12.6725812490        9.6091283618
C                11.8531223470       10.4464356854       11.8743409428
O                12.5053434336        9.3975326825       12.5099807767
H                13.0935774254       11.7500095775       13.7922070930
H                13.6769105896       11.2969801012       11.0590244190
H                10.9666452059       10.7854786969       12.4209517275
H                11.5376023567       10.0912061703       10.8914711688
H                12.6237802819        9.6230032034       13.4493669814
N                11.2116200277       13.4423327957       11.5337040072
C                10.4793341710       14.5079352038       10.8546028160
C                11.4466215859       15.5191580315       10.2383547330
O                11.2433530192       15.9719005687        9.1159639470
C                 9.4941337858       15.2590614043       11.7914051800
C                 9.3159870516       16.7582664921       11.6579913159
C                 8.6284432511       17.3632604154       10.5671143359
C                 9.6980765978       17.5960067648       12.6943714608
C                 8.3862583467       18.7162423973       10.5386918505
C                 9.4374363340       18.9467092761       12.6866752806
C                 8.7575671364       19.5534298126       11.6244121287
O                 8.4788468096       20.8974079001       11.7716286856
H                11.1358362006       13.3451274360       12.5393352637
H                 9.9304777540       14.0519498900       10.0222034629
H                 8.5152758421       14.7914229665       11.6660394117
H                 9.8292560842       15.0626336066       12.8119272335
H                 8.3164140657       16.7530119878        9.7331983828
H                10.2139322180       17.1724247736       13.5429488084
H                 7.8754938033       19.1605146813        9.6940145932
H                 9.7240295473       19.5618487762       13.5217562263
H                 8.1937479800       21.2913721292       10.9133193490
N                12.5165515379       15.8487588607       10.9594933602
C                13.4487186342       16.8638117504       10.4282024882
C                14.2469571581       16.3302100877        9.2286506721
O                14.7715863607       17.1240385324        8.4541410286
C                14.3799172664       17.3719959667       11.5219138978
C                13.6099858785       18.2161204063       12.4809761462
S                13.1593846767       19.8814124236       11.7673060885
C                14.7898136074       20.7184614394       11.8131104111
H                12.6377070825       15.5417164537       11.9220868382
H                12.8549587836       17.7012581189       10.0360157767
H                14.8117452856       16.5094269464       12.0368172857
H                15.1945808017       17.9250185228       11.0504740395
H                12.6567592389       17.7610711562       12.7394805969
H                14.1661872764       18.4017033368       13.3961156265
H                14.6120781958       21.7664286151       11.6048465211
H                15.2599259522       20.5998886862       12.7817725335
H                15.4304359116       20.2980210884       11.0439281304
N                14.3105289686       14.9920733169        9.1029685779
C                14.9063225101       14.3370238789        7.9462349555
C                13.9626494812       14.1847694497        6.7493972473
O                14.3942437313       13.7235053933        5.6841812085
C                15.4182195261       12.9161633391        8.2465685217
C                16.6577947552       12.7917667870        9.1182166340
C                16.6989114702       11.3727631933        9.7083499053
C                17.9079476648       12.9825093179        8.2722568544
H                14.0317326113       14.3965623343        9.8729596955
H                15.7504708048       14.9477180109        7.5971913903
H                14.5865854986       12.3791940219        8.7133426748
H                15.6256754884       12.4472738105        7.2846143251
H                16.6157052863       13.5182996132        9.9316112857
H                17.5887145331       11.2349909811       10.3134292010
H                15.8264860893       11.1920276941       10.3311026170
H                16.7090260687       10.6415599952        8.9056501852
H                18.8098039955       12.9170066816        8.8714363444
H                17.9493899740       12.2141481950        7.5047776495
H                17.9160731577       13.9435542245        7.7652326011
N                12.6721818768       14.5231651493        6.9384091394
C                11.6352377450       14.0441029587        6.0340733043
C                11.4216838247       14.9341716457        4.8139803791
O                10.6682128552       14.5910215677        3.8984316077
C                10.2927092728       13.8239016919        6.7503272875
O                 9.6482020105       15.0233238738        7.1210102351
H                12.3707306212       14.9060090805        7.8256481542
H                11.9665207147       13.0811020702        5.6240868269
H                 9.6196677039       13.3065631839        6.0639204429
H                10.4644194007       13.1822482826        7.6230757001
H                10.1729180712       15.4653239735        7.8190969028
O                 8.3998578531       11.8245463166       12.7793976285
H                 9.0798895996       12.2927999699       13.2918847230
H                 7.5660735774       11.9441364951       13.2413472329
O                12.4211972978       10.5773420714        7.8340093846
H                12.8753789504       10.9205328800        7.0621994865
H                12.2750659331       11.3342955700        8.4240300052
O                15.4186554822        9.2381926972       14.4488790947
H                15.2543388392        8.9238985347       13.5581330437
H                14.6151275285        9.7103244929       14.7231205760
O                 7.1978118793       14.1406317997        8.3775416245
H                 7.9500131454       14.4266175480        7.8296357970
H                 6.9084718397       14.9183594241        8.8635695974
O                 8.3028940471       11.9772095530       10.0401943830
H                 8.1993459521       11.9833132946       11.0044496990
H                 7.7029004406       12.6262644767        9.6526905319
H                14.1863645683       11.1836086988       18.9470851515
H                11.8958966827       15.8119750628        4.7462801118
