 78 
 
N                42.3090000000       27.6130000000       -4.6890000000
C                42.4300000000       28.3740000000       -5.9360000000
C                42.4350000000       27.4330000000       -7.1440000000
O                42.9680000000       26.3240000000       -7.0740000000
C                43.7150000000       29.2210000000       -5.9400000000
C                43.6100000000       30.5530000000       -5.2080000000
C                44.9050000000       31.3410000000       -5.3010000000
C                44.7920000000       32.6460000000       -4.5390000000
N                46.0670000000       33.3990000000       -4.5560000000
H                43.2020000000       27.4060000000       -4.2410000000
H                41.5770000000       29.0470000000       -6.0210000000
H                44.5080000000       28.6470000000       -5.4610000000
H                43.9830000000       29.4370000000       -6.9740000000
H                42.8130000000       31.1490000000       -5.6540000000
H                43.3940000000       30.3710000000       -4.1550000000
H                45.7190000000       30.7570000000       -4.8700000000
H                45.1200000000       31.5670000000       -6.3450000000
H                44.0220000000       33.2660000000       -4.9980000000
H                44.5320000000       32.4360000000       -3.5010000000
H                45.9620000000       34.2880000000       -4.0270000000
H                46.8210000000       32.8320000000       -4.1170000000
H                46.3370000000       33.6190000000       -5.5360000000
N                41.8300000000       27.8800000000       -8.2450000000
C                41.7630000000       27.1010000000       -9.4840000000
C                42.5330000000       27.8860000000      -10.5680000000
O                42.1380000000       28.9990000000      -10.9370000000
C                40.2920000000       26.9020000000       -9.8880000000
C                40.0200000000       25.7660000000      -10.8790000000
C                40.1650000000       24.3870000000      -10.2440000000
C                39.7960000000       23.2910000000      -11.2340000000
N                40.0260000000       21.9230000000      -10.6940000000
H                41.3720000000       28.7890000000       -8.3110000000
H                42.2300000000       26.1230000000       -9.3660000000
H                39.7160000000       26.6890000000       -8.9870000000
H                39.9370000000       27.8240000000      -10.3480000000
H                39.0010000000       25.8580000000      -11.2560000000
H                40.7300000000       25.8340000000      -11.7030000000
H                41.1990000000       24.2370000000       -9.9320000000
H                39.5010000000       24.3120000000       -9.3830000000
H                38.7390000000       23.3800000000      -11.4850000000
H                40.4030000000       23.4050000000      -12.1320000000
H                39.7600000000       21.2110000000      -11.4040000000
H                41.0300000000       21.8000000000      -10.4520000000
H                39.4520000000       21.7770000000       -9.8390000000
N                43.6320000000       27.3060000000      -11.0600000000
C                44.4860000000       27.9500000000      -12.0670000000
C                44.1250000000       27.6460000000      -13.5230000000
O                45.0110000000       27.1480000000      -14.2520000000
C                45.9570000000       27.5750000000      -11.8050000000
C                46.2720000000       26.0740000000      -11.9010000000
C                47.5850000000       25.6880000000      -11.2330000000
O                47.6460000000       25.7010000000       -9.9860000000
O                48.5550000000       25.3690000000      -11.9530000000
O                42.9690000000       27.9130000000      -13.9240000000
H                43.9620000000       26.3820000000      -10.7800000000
H                44.3370000000       29.0250000000      -11.9630000000
H                46.5790000000       28.0870000000      -12.5390000000
H                46.2220000000       27.9010000000      -10.7990000000
H                45.4730000000       25.5140000000      -11.4150000000
H                46.3370000000       25.7940000000      -12.9520000000
N                35.6910000000       21.0290000000      -11.1660000000
C                35.6340000000       21.3050000000       -9.7220000000
C                34.1750000000       21.2420000000       -9.2120000000
O                33.4040000000       22.1820000000       -9.4200000000
C                36.2250000000       22.6970000000       -9.4510000000
C                36.5140000000       23.0190000000       -7.9910000000
C                37.8050000000       22.3980000000       -7.4990000000
O                38.8490000000       22.5990000000       -8.1570000000
O                37.7770000000       21.7160000000       -6.4520000000
H                35.0510000000       21.6050000000      -11.7130000000
H                36.1870000000       20.5250000000       -9.1990000000
H                37.1670000000       22.7800000000       -9.9930000000
H                35.5190000000       23.4440000000       -9.8130000000
H                36.5940000000       24.1000000000       -7.8750000000
H                35.7000000000       22.6370000000       -7.3750000000
H                41.8177213099       28.0811414423       -4.0978241897
H                36.5234965169       21.1868018491      -11.4693943403
H                33.8544012747       20.4374877441       -8.7120235131
