 56 
 
N                29.7447204155       12.4621311363        4.8561708765
C                30.6813111658       12.6217762443        5.9483879737
C                29.9924507641       13.2137212424        7.1871999398
O                30.2399888160       12.7970362327        8.3133965730
C                31.8315158475       13.5492614141        5.5726961071
C                32.6830881151       13.0499308423        4.3963655071
C                34.1544455254       12.9343608348        4.7642958747
N                34.3967441852       11.7065087494        5.5024615818
C                35.5329386645       11.4237436482        6.1392668695
N                36.4333363836       12.3639297916        6.4031065624
N                35.7664501082       10.1580073495        6.5006968831
H                29.9314362475       12.9488698415        3.9891119813
H                31.0573152926       11.6333267883        6.2433638079
H                31.4139022553       14.5256957232        5.3263999403
H                32.4546237817       13.6671999548        6.4592079983
H                32.3165675163       12.0919203009        4.0265348459
H                32.5966758240       13.7482190705        3.5632401726
H                34.7589340910       12.9302218433        3.8558669515
H                34.4378308371       13.8035865053        5.3588871620
H                33.7943632438       10.9360616020        5.2406729635
H                36.2236420231       13.3635916209        6.3678918066
H                37.2104882565       12.1120908196        6.9896879967
H                35.1128184182        9.4276178280        6.2726064015
H                36.5640263714        9.9038545450        7.0605521705
O                36.3524928079       15.2099619861        6.5151629414
H                37.2290214580       15.2765823148        6.1224455384
H                35.7824759658       15.7099724500        5.9086195331
N                37.2460164096       18.0959349995        8.5116190345
C                38.0355077425       17.1190436558        9.3099882573
C                39.5317175485       17.4948851152        9.2882981449
O                40.1672744448       17.4560913250        8.2444731148
H                37.6640031815       18.1744542877        7.5675711371
H                36.2692715116       17.7678772995        8.4152890389
H                37.2717279321       19.0279101144        8.9544897750
H                37.6721696539       17.0815384838       10.3368154234
H                37.9330189066       16.1379721901        8.8376334277
N                38.4869301873       19.5817422345        5.4139209045
C                37.4704038902       19.3201253319        4.4046590048
C                37.6090720008       20.2577943845        3.2109168234
O                37.6312167561       19.8521168245        2.0549520686
C                36.0675953119       19.4599047681        5.0060055502
C                34.9731983006       19.1689557434        3.9825639073
C                34.8486854345       17.6381343316        3.6793883836
O                35.1682086175       16.8669446348        4.6078724689
O                34.4283594584       17.3192300154        2.5528662348
H                38.2065573745       20.1280544107        6.2261851557
H                37.6117936673       18.3032155481        4.0203467561
H                35.9426574983       18.7265930395        5.8032109595
H                35.9508628301       20.4708568731        5.3981623233
H                34.0020917855       19.4842420762        4.3719240040
H                35.1354244742       19.6934372502        3.0394970668
H                29.6954112868       11.5931193997        4.6272883487
H                29.3276510256       13.9535781691        7.0839863963
H                39.9896472761       17.7731328473       10.1326195080
H                38.7913568181       18.8013558987        5.7430433640
H                37.6861338738       21.2441776664        3.3562078722
