 227 
 
N                27.8139857396       24.7713282706       85.0464798596
C                27.3046926793       23.4247223015       85.1262475437
C                26.0657990282       23.2339929652       84.2510650121
O                25.9324406106       22.2420113026       83.5517241445
C                26.9695123310       23.0369643203       86.5745504677
C                26.3902436926       21.6465621366       86.6733269344
C                27.1094011969       20.5394296561       86.2368865911
C                25.1251581966       21.4394173549       87.2068351586
C                26.5693416412       19.2667558635       86.3058475441
C                24.5966671946       20.1639544531       87.3126474834
C                25.3093093596       19.0738083220       86.8501645103
H                27.2599577333       25.4841959744       85.5121225871
H                28.0878260574       22.7631516408       84.7445185434
H                27.8888946821       23.0977558596       87.1641285792
H                26.2663383968       23.7670885518       86.9796588532
H                28.1051616851       20.6724287217       85.8434043159
H                24.5562681672       22.2846126233       87.5739293752
H                27.1251311953       18.4196964738       85.9317135008
H                23.6251455964       20.0246100371       87.7653946607
H                24.8953862506       18.0810297227       86.9312661693
N                23.3102130396       23.6966237809       81.2858128137
C                23.2083522949       24.0806009459       79.8703001722
C                22.4118617344       25.3942718081       79.7486918968
O                21.8680963132       25.9233547523       80.6791912599
C                22.4459653502       22.9228793587       79.1999620168
C                21.5490142133       22.4298385378       80.3422821189
C                22.3885990705       22.6298543818       81.6262222542
H                24.2217320836       24.2179246055       79.4897044966
H                21.8760085678       23.2491121035       78.3453841194
H                23.1458876549       22.1391595873       78.9082791099
H                20.6565399852       23.0512555386       80.4036179507
H                21.2571043244       21.3913481674       80.2187102019
H                21.7454409092       22.9069813790       82.4579154208
H                22.9530885261       21.7294288662       81.8775221262
N                12.9121233202       24.0200734844       83.8874606559
C                13.6590143922       22.8138656708       84.1740564932
C                13.3295555924       21.6941018739       83.1759638425
O                14.2044587079       20.9809982744       82.7117677215
C                13.3612681395       22.3410115120       85.5870789602
C                14.3065127236       21.2094931188       85.9945420180
C                14.2310748690       20.8403710072       87.4794486116
N                14.6832441174       21.9574672298       88.2826403673
C                14.9100845629       21.9116825900       89.5753746766
N                14.7467677909       20.7951913193       90.2715657728
N                15.2539697966       23.0494531319       90.2112747495
H                12.2865993450       24.3829615376       84.5992986873
H                14.7302455044       23.0167333770       84.0537414130
H                13.4579610502       23.2017354510       86.2520481081
H                12.3222803053       22.0014602567       85.6356358249
H                14.0792479826       20.3178049962       85.4112043824
H                15.3365361379       21.4724241802       85.7617599983
H                13.2007103548       20.5847856166       87.7463014364
H                14.8852166227       19.9868561680       87.6269240589
H                14.8460157821       22.8249547688       87.7992284897
H                14.6706480617       19.9027876122       89.8015949676
H                15.0225156073       20.7427446482       91.2347592692
H                15.1833998143       23.9310454105       89.7377195910
H                15.2133201016       23.0708941971       91.2239502955
N                15.2720435597       21.4184897842       80.1305676142
C                16.6433185987       21.0038693318       80.3251323587
C                16.7161410060       19.4828022434       80.5674430226
O                15.7439394199       18.7717828306       80.7548375913
C                17.2740175671       21.7904479832       81.4701277230
C                17.2377293762       23.2913679058       81.2073832013
S                18.2251987318       24.1840409198       82.4863489905
C                17.1297024075       25.5555603253       82.8895738356
H                14.6668304839       21.2435022428       80.9279750522
H                17.1623175321       21.2139328579       79.3809960663
H                16.7167019155       21.5690443859       82.3865683818
H                18.3070780306       21.4714097685       81.6172239854
H                17.6645068004       23.5233578214       80.2336486580
H                16.2177912471       23.6646262055       81.2594065582
H                17.5097445374       26.0125932686       83.7937257296
H                17.1470125336       26.2802778989       82.0781131387
H                16.1323297706       25.1625814317       83.0389623850
N                17.9650100119       18.9678018850       80.5003673615
C                18.1718386198       17.5916623964       80.0782419581
C                18.4906652182       16.6790126184       81.2674609677
O                19.5847100287       16.6691103492       81.8015859935
C                19.2563933910       17.5418359481       78.9769439278
C                20.6367303958       17.9905501533       79.4553753888
C                19.3329196138       16.1330212573       78.3944984114
H                18.7355471402       19.5979124062       80.3328804802
H                17.2200720545       17.2592496301       79.6431241958
H                18.9168931933       18.2270156207       78.1919049870
H                21.3032813582       18.0758924378       78.6027204509
H                20.6032359561       18.9529686318       79.9581720472
H                21.0458360996       17.2629660877       80.1499174479
H                20.0454518180       16.1109684090       77.5735789468
H                19.6653806520       15.4311584606       79.1543073985
H                18.3665795845       15.8114017675       78.0169575672
N                17.4715904425       15.9036146734       81.6775584939
C                17.5699840726       14.8816548355       82.7205951666
C                17.9067880053       15.4822862130       84.1126577572
O                18.4875744417       14.8281677494       84.9645000822
C                18.5950387147       13.7684135764       82.4060168306
C                18.1072511934       12.6013692267       81.5359719003
C                18.0288618124       12.9874939728       80.0583639894
C                19.0615259795       11.4187874450       81.7131592642
H                16.5752257532       16.0098258792       81.2253549182
H                16.5794470873       14.4283092596       82.8194430562
H                19.4639788822       14.2283668568       81.9348524076
H                18.8993388270       13.3698900006       83.3744148785
H                17.1120328680       12.2967376292       81.8765757218
H                17.6468624089       12.1600846393       79.4700597963
H                17.3704198700       13.8421408470       79.9140159427
H                19.0169235870       13.2440536168       79.6867782472
H                18.7408733043       10.5804063902       81.1007091741
H                20.0682718692       11.6959745798       81.4114394032
H                19.0846079455       11.0942864656       82.7500903075
N                17.4882067347       16.7413382178       84.3368088028
C                17.9442364123       17.4887222155       85.4930275474
C                16.8307234938       17.7512213461       86.5247038399
O                16.3689599917       18.8611749499       86.6933144985
C                18.5353158766       18.8398626530       85.0597970676
C                19.6608372199       18.7458165106       84.0382571146
C                21.0382306457       18.3668471446       84.6027620274
N                21.0705952734       17.1544506555       85.4033048574
C                21.2760346729       15.9002222472       85.0192368691
N                21.3639591601       15.5734747005       83.7207081094
N                21.4843194734       14.9847119764       85.9535013914
H                16.9889981251       17.2507308000       83.6223232854
H                18.6873763620       16.8584917561       85.9910797919
H                17.7173984974       19.4276672340       84.6438746073
H                18.8802058893       19.3498367686       85.9613280104
H                19.3891558713       18.0358060457       83.2638997633
H                19.7808593733       19.7217294615       83.5720717930
H                21.7369640923       18.2527904882       83.7722487773
H                21.3939773576       19.1689449579       85.2474171563
H                21.0307857944       17.2778783540       86.4011023642
H                20.8981964074       16.1447825333       83.0240838320
H                21.4563094553       14.5979666272       83.4999284575
H                21.4288956774       15.2594228779       86.9361873252
H                21.5224688449       14.0053482599       85.7212654357
N                16.4033291622       16.6840297569       87.2316911677
C                15.4337472237       16.8626135025       88.2871241864
C                15.9778383481       16.7778061980       89.7284230450
O                15.3796687109       17.3239210862       90.6429951132
C                14.2541453712       15.8964453798       88.1461309603
H                16.8514044742       15.7890553218       87.1049935405
H                15.0612714252       17.8859409272       88.1721326249
H                13.5460270061       16.0884360961       88.9510686289
H                13.7607006393       16.0562867793       87.1950268205
H                14.5884202831       14.8677688140       88.2174211812
N                17.0789076131       16.0225549350       89.8990936028
C                17.6846251558       15.7857535588       91.1914094153
C                18.8376473950       16.7456223374       91.5373185473
O                19.6726327544       16.4873076319       92.3746133774
C                18.1411333212       14.3056387852       91.2870758986
O                18.6275799346       14.0213390261       92.5717432992
C                19.1468194772       13.9538525264       90.1865754539
H                17.7081567577       15.9050393269       89.1075552781
H                16.9176889299       15.9591498917       91.9590517041
H                17.2528916366       13.6682274909       91.1664192706
H                19.2685985658       14.7239075743       92.8030068944
H                19.5440627001       12.9607894271       90.3696107418
H                18.6666119336       13.9624885374       89.2127323417
H                19.9719209237       14.6629075694       90.1736687856
N                18.7737724573       17.9260032592       90.9087324239
C                19.7385744910       18.9960762911       91.0795806525
C                18.9657151282       20.2894759114       90.7630371439
O                18.2967238216       20.4134252666       89.7421345552
C                20.9659829641       18.8444849485       90.1582908931
C                20.5878655609       18.5967631702       88.6915978802
C                20.2927969435       17.0950486906       88.3973241582
O                21.2918717558       16.3398925798       88.2984912808
O                19.1124142357       16.7440041952       88.2094452123
H                18.1901331190       18.0140590705       90.0848199881
H                20.0709796715       18.9717113799       92.1194014096
H                21.5623104797       19.7533649823       90.2415762058
H                21.5701858086       18.0042596814       90.5099297259
H                19.7140071398       19.1900354354       88.4167582516
H                21.4334931312       18.8799981804       88.0626988368
N                19.0015299664       21.2157843608       91.7362334892
C                18.3117863132       22.4726383381       91.5833532982
C                19.2223577202       23.5677879192       91.0279607779
O                20.4394193503       23.5466171690       91.0780644825
C                17.7336207108       22.9483046876       92.9127256872
H                19.6869167525       21.1366675444       92.4717476769
H                17.5268307466       22.2787230823       90.8433238258
H                17.1619156177       23.8588887521       92.7896168219
H                17.1020563972       22.1687505356       93.3412257576
H                18.5417624824       23.1459710844       93.6150332038
N                18.5062157279       24.5717230655       90.4961225466
C                19.0619426624       25.8569884266       90.2115100808
C                18.0092331159       26.8856729440       90.6334276357
O                16.8413532709       26.5517956620       90.7308820721
C                19.3908497482       25.9715175567       88.7106224501
C                18.1630388618       25.8615580112       87.8505297239
C                17.6838906506       24.6220866671       87.4485683072
C                17.4828125563       27.0061992131       87.4527910379
C                16.5556784089       24.5353576927       86.6526615006
C                16.3471931159       26.9162841043       86.6677079366
C                15.8819822602       25.6796640821       86.2645248454
H                17.4951235700       24.5834800284       90.5662031742
H                19.9824452026       26.0058761739       90.7869325464
H                19.8884035989       26.9291969683       88.5336241556
H                20.0863831283       25.1634397124       88.4797206995
H                18.2128121099       23.7265668625       87.7432699158
H                17.8480188650       27.9655188718       87.7898257071
H                16.2307211725       23.5674152499       86.3080209340
H                15.8349994910       27.8179745781       86.3666305147
H                14.9928449853       25.6064406948       85.6607434472
N                27.7969726169       13.8658074340       82.8475371741
C                27.5654033897       14.1214575183       81.4426031958
C                28.6060034240       15.0942288488       80.8263546795
O                28.3508724210       15.7614782297       79.8315645548
C                26.1442603533       14.6705321792       81.2377318662
C                25.8334644164       15.8803466794       82.1147178089
O                26.3102214189       16.0497855585       83.2391775558
N                24.9784424897       16.7533691694       81.5698700877
H                27.4419703410       14.5971347050       83.4635915071
H                27.6702557154       13.1686659565       80.9115742390
H                26.0286300217       14.9389390683       80.1886120605
H                25.4220985564       13.8930550713       81.4886653216
H                24.6629786351       17.5375196053       82.1244034168
H                24.5576482148       16.5961832411       80.6753565110
H                28.6316875891       24.8059339044       85.4208675401
H                25.3464503082       23.9286117856       84.2445755340
H                24.1770049393       23.6574676074       81.5248496241
H                22.3288884305       25.8484011908       78.8616282381
H                13.4837582674       24.6944929423       83.7189617478
H                12.3828228989       21.5378887675       82.8943707452
H                15.2458402763       22.3034269261       79.9687045768
H                18.2809706283       27.8281623746       90.8280359539
H                27.3914331750       13.0979391832       83.0840030496
H                29.5106199241       15.1877254872       81.2422000430
