 486 
 
N                 2.4820000000       28.1990000000       99.8810000000
C                 2.6050000000       28.6140000000       98.4790000000
C                 1.1870000000       28.7980000000       97.9310000000
O                 0.9130000000       29.7960000000       97.2350000000
C                 3.4450000000       27.5990000000       97.6650000000
C                 3.8140000000       28.0240000000       96.2210000000
C                 3.7220000000       26.8650000000       95.1820000000
O                 4.1430000000       25.7150000000       95.5110000000
O                 3.2330000000       27.1050000000       94.0340000000
H                 3.0240000000       27.5640000000      100.0870000000
H                 3.0860000000       29.4510000000       98.3910000000
H                 4.2770000000       27.4450000000       98.1400000000
H                 2.9420000000       26.7730000000       97.6010000000
H                 3.2060000000       28.7250000000       95.9360000000
H                 4.7260000000       28.3540000000       96.2160000000
N                -0.8850000000       31.6730000000      100.1560000000
C                -0.3370000000       32.9870000000       99.8390000000
C                -1.0520000000       33.6220000000       98.6470000000
O                -1.5040000000       34.7770000000       98.7210000000
C                 1.1520000000       32.8630000000       99.5420000000
H                -0.2950000000       31.0490000000      100.2040000000
H                -0.4590000000       33.5650000000      100.6080000000
H                 1.5090000000       33.7420000000       99.3420000000
H                 1.5990000000       32.4930000000      100.3190000000
H                 1.2740000000       32.2750000000       98.7790000000
N                -1.1420000000       32.8770000000       97.5340000000
C                -1.9070000000       33.2050000000       96.3300000000
C                -3.1730000000       33.9830000000       96.6360000000
O                -3.4860000000       34.9220000000       95.9100000000
C                -2.2080000000       31.8890000000       95.5970000000
C                -2.6900000000       31.9430000000       94.1880000000
C                -3.5750000000       30.6410000000       93.8590000000
C                -4.4390000000       30.7880000000       92.5360000000
N                -5.6440000000       29.9250000000       92.4310000000
H                -0.7380000000       32.1230000000       97.4480000000
H                -1.3910000000       33.7910000000       95.7540000000
H                -1.3900000000       31.3670000000       95.5870000000
H                -2.8920000000       31.4230000000       96.1030000000
H                -3.2390000000       32.7320000000       94.0600000000
H                -1.9320000000       31.9650000000       93.5840000000
H                -2.9840000000       29.8800000000       93.7450000000
H                -4.1840000000       30.4800000000       94.5960000000
H                -4.7420000000       31.7080000000       92.4750000000
H                -3.8710000000       30.5760000000       91.7790000000
H                -6.2610000000       30.3240000000       91.9290000000
H                -5.4290000000       29.1460000000       92.0600000000
H                -5.9830000000       29.7760000000       93.2400000000
N                -1.6960000000       42.9190000000       95.2400000000
C                -0.9270000000       42.1150000000       94.2890000000
C                -1.3010000000       42.4290000000       92.8280000000
O                -0.4560000000       42.8670000000       92.0370000000
C                -1.1030000000       40.6430000000       94.6090000000
C                -0.3590000000       40.1800000000       95.8620000000
C                -0.8660000000       38.7340000000       96.2960000000
C                -0.0040000000       38.0330000000       97.3720000000
N                -0.6430000000       36.8570000000       97.9970000000
H                -2.0170000000       42.4710000000       95.9000000000
H                 0.0130000000       42.3330000000       94.3880000000
H                -2.0470000000       40.4660000000       94.7460000000
H                -0.7720000000       40.1210000000       93.8610000000
H                 0.5920000000       40.1350000000       95.6780000000
H                -0.5280000000       40.8000000000       96.5890000000
H                -1.7640000000       38.8170000000       96.6530000000
H                -0.8720000000       38.1620000000       95.5130000000
H                 0.8220000000       37.7330000000       96.9610000000
H                 0.1890000000       38.6700000000       98.0780000000
H                -0.0700000000       36.4560000000       98.5470000000
H                -1.3590000000       37.1110000000       98.4600000000
H                -0.8950000000       36.2790000000       97.3690000000
N                -2.5500000000       42.2280000000       92.4290000000
C                -2.8340000000       42.4480000000       91.0100000000
C                -2.7680000000       43.9210000000       90.6720000000
O                -1.9910000000       44.3360000000       89.8160000000
C                -4.1850000000       41.8840000000       90.5660000000
C                -3.9920000000       40.4380000000       90.0760000000
C                -3.0750000000       40.2540000000       88.8170000000
C                -2.6530000000       38.7630000000       88.6990000000
N                -2.1130000000       38.4020000000       87.3710000000
H                -3.2090000000       41.9800000000       92.9220000000
H                -2.1560000000       41.9560000000       90.5200000000
H                -4.8040000000       41.8840000000       91.3120000000
H                -4.5420000000       42.4180000000       89.8390000000
H                -3.5940000000       39.9240000000       90.7960000000
H                -4.8620000000       40.0750000000       89.8510000000
H                -3.5610000000       40.5070000000       88.0170000000
H                -2.2780000000       40.8000000000       88.9080000000
H                -1.9650000000       38.5800000000       89.3580000000
H                -3.4280000000       38.2040000000       88.8650000000
H                -1.5020000000       37.7610000000       87.4550000000
H                -2.7680000000       38.1100000000       86.8450000000
H                -1.7340000000       39.1140000000       86.9930000000
N                 0.5470000000       45.1300000000       89.7970000000
C                 1.2610000000       44.6210000000       88.6220000000
C                 0.7850000000       45.2360000000       87.2970000000
O                 1.5920000000       45.4330000000       86.3750000000
C                 1.1090000000       43.1140000000       88.5190000000
C                 1.8440000000       42.5390000000       87.3310000000
C                 1.3010000000       42.6000000000       86.0730000000
C                 3.0650000000       41.9110000000       87.4750000000
C                 1.9490000000       42.0600000000       85.0120000000
C                 3.7070000000       41.3610000000       86.4000000000
C                 3.1430000000       41.4330000000       85.1620000000
O                 3.7790000000       40.9170000000       84.0330000000
H                 0.0610000000       44.5410000000       90.1930000000
H                 2.1920000000       44.8600000000       88.7520000000
H                 1.4670000000       42.7040000000       89.3220000000
H                 0.1680000000       42.8960000000       88.4260000000
H                 0.4790000000       43.0170000000       85.9470000000
H                 3.4570000000       41.8600000000       88.3160000000
H                 1.5680000000       42.1210000000       84.1660000000
H                 4.5280000000       40.9390000000       86.5140000000
H                 4.5370000000       40.6200000000       84.2410000000
N                15.0030000000       41.0220000000       96.3090000000
C                14.6020000000       39.7310000000       95.7610000000
C                13.7880000000       39.9440000000       94.4950000000
O                13.9360000000       39.2210000000       93.5140000000
C                13.7920000000       38.8910000000       96.7640000000
C                14.4710000000       38.7120000000       98.0980000000
O                15.5850000000       39.2300000000       98.3700000000
O                13.8780000000       37.9630000000       98.8860000000
H                14.7720000000       41.1810000000       97.1220000000
H                15.4050000000       39.2230000000       95.5690000000
H                12.9410000000       39.3300000000       96.9220000000
H                13.6460000000       38.0100000000       96.3860000000
N                12.9040000000       40.9180000000       94.5030000000
C                12.0810000000       41.1330000000       93.3310000000
C                12.8520000000       41.4130000000       92.0520000000
O                12.3730000000       41.1140000000       90.9630000000
H                12.7610000000       41.4570000000       95.1580000000
H                11.5380000000       40.3430000000       93.1820000000
H                11.4970000000       41.8900000000       93.4960000000
N                16.1460000000       40.0980000000       91.6680000000
C                16.8690000000       38.8490000000       91.4720000000
C                16.3010000000       37.9900000000       90.3570000000
O                15.1430000000       37.5510000000       90.4360000000
C                16.8600000000       38.0520000000       92.7660000000
S                18.3550000000       38.2180000000       93.6950000000
H                16.0420000000       40.3030000000       92.4970000000
H                17.7800000000       39.0770000000       91.2260000000
H                16.1270000000       38.3620000000       93.3210000000
H                16.7420000000       37.1120000000       92.5550000000
H                18.2710000000       37.5570000000       94.6930000000
N                17.1610000000       37.6740000000       89.3650000000
C                16.7320000000       36.9110000000       88.2010000000
C                15.9770000000       35.6360000000       88.5850000000
O                16.3150000000       34.9330000000       89.5460000000
C                17.9190000000       36.4680000000       87.3290000000
C                17.3520000000       35.7930000000       86.0230000000
C                18.8760000000       37.5450000000       87.0140000000
H                17.9920000000       37.8950000000       89.3520000000
H                16.1490000000       37.5200000000       87.7210000000
H                18.4440000000       35.8300000000       87.8370000000
H                18.0940000000       35.5140000000       85.4640000000
H                16.8170000000       35.0240000000       86.2720000000
H                16.8040000000       36.4370000000       85.5470000000
H                19.4290000000       37.2670000000       86.2660000000
H                18.3840000000       38.3470000000       86.7810000000
H                19.4320000000       37.7110000000       87.7920000000
N                15.0290000000       35.2710000000       87.7250000000
C                14.2930000000       34.0080000000       87.8030000000
C                13.7050000000       33.8730000000       86.3920000000
O                12.6270000000       34.3950000000       86.0960000000
C                13.2370000000       34.0290000000       88.8640000000
C                12.6610000000       32.7000000000       89.1020000000
O                13.2490000000       31.6740000000       88.7080000000
N                11.4870000000       32.6800000000       89.7520000000
H                14.7810000000       35.7560000000       87.0600000000
H                14.8700000000       33.2580000000       88.0140000000
H                13.6270000000       34.3410000000       89.6950000000
H                12.5210000000       34.6230000000       88.5890000000
H                11.1010000000       31.9300000000       89.9200000000
H                11.1200000000       33.4180000000       90.0010000000
N                 9.9830000000       32.1010000000       86.1110000000
C                 8.7120000000       32.6530000000       86.5800000000
C                 8.5910000000       34.1240000000       86.1870000000
O                 9.5880000000       34.8720000000       86.1910000000
C                 8.5920000000       32.5530000000       88.0970000000
C                 8.4320000000       31.1810000000       88.6350000000
C                 8.1630000000       31.1810000000       90.1490000000
O                 6.9930000000       31.3730000000       90.5640000000
O                 9.1340000000       31.0020000000       90.9260000000
H                10.6010000000       32.6950000000       86.0400000000
H                 7.9950000000       32.1590000000       86.1540000000
H                 9.3950000000       32.9270000000       88.4920000000
H                 7.8160000000       33.0640000000       88.3760000000
H                 7.6830000000       30.7500000000       88.1950000000
H                 9.2460000000       30.6780000000       88.4730000000
N                 7.3530000000       34.5420000000       85.8980000000
C                 7.0950000000       35.9390000000       85.5580000000
C                 7.0900000000       36.7650000000       86.8350000000
O                 6.9150000000       36.2230000000       87.9230000000
C                 5.7870000000       36.0860000000       84.7720000000
O                 4.6720000000       35.9230000000       85.6300000000
C                 5.6850000000       35.0590000000       83.6710000000
H                 6.6550000000       34.0390000000       85.8940000000
H                 7.7910000000       36.2840000000       84.9760000000
H                 5.7770000000       36.9730000000       84.3780000000
H                 3.9680000000       36.1570000000       85.2350000000
H                 4.8540000000       35.1760000000       83.1840000000
H                 6.4270000000       35.1580000000       83.0540000000
H                 5.7060000000       34.1650000000       84.0480000000
N                 7.3530000000       38.0760000000       86.7300000000
C                 7.2210000000       38.8980000000       87.9340000000
C                 5.9460000000       38.5370000000       88.6570000000
O                 5.9840000000       38.0100000000       89.7530000000
C                 7.2420000000       40.3770000000       87.6080000000
S                 8.9230000000       40.9600000000       87.1970000000
H                 7.5950000000       38.4870000000       86.0140000000
H                 7.9870000000       38.7290000000       88.5060000000
H                 6.6670000000       40.5430000000       86.8440000000
H                 6.9260000000       40.8770000000       88.3760000000
N                 4.8100000000       38.6490000000       87.9750000000
C                 3.5090000000       38.2730000000       88.5110000000
C                 3.5200000000       37.0160000000       89.3630000000
O                 3.2690000000       37.0700000000       90.5740000000
C                 2.5480000000       38.1310000000       87.3320000000
C                 1.0980000000       38.2530000000       87.6550000000
C                 0.3010000000       38.5360000000       86.3910000000
O                 0.2090000000       37.6380000000       85.5330000000
O                -0.3370000000       39.6030000000       86.2870000000
H                 4.7660000000       38.9510000000       87.1710000000
H                 3.2090000000       38.9760000000       89.1080000000
H                 2.7570000000       38.8230000000       86.6850000000
H                 2.6810000000       37.2550000000       86.9360000000
H                 0.7790000000       37.4230000000       88.0440000000
H                 0.9630000000       38.9850000000       88.2780000000
N                 3.8100000000       35.8770000000       88.7530000000
C                 3.6890000000       34.5990000000       89.4520000000
C                 4.4490000000       34.6130000000       90.7820000000
O                 3.9420000000       34.0990000000       91.7930000000
C                 4.2520000000       33.4960000000       88.5730000000
C                 3.7490000000       33.5130000000       87.1300000000
C                 4.7830000000       32.9140000000       86.1620000000
O                 5.9980000000       32.7960000000       86.4770000000
N                 4.3160000000       32.5710000000       84.9700000000
H                 4.0780000000       35.8110000000       87.9380000000
H                 2.7510000000       34.4300000000       89.6310000000
H                 5.2180000000       33.5830000000       88.5480000000
H                 4.0070000000       32.6400000000       88.9580000000
H                 2.9350000000       32.9910000000       87.0680000000
H                 3.5770000000       34.4300000000       86.8630000000
H                 3.4840000000       32.6890000000       84.7840000000
H                 4.8440000000       32.2300000000       84.3840000000
N                 5.6590000000       35.1920000000       90.8070000000
C                 6.4220000000       35.1990000000       92.0400000000
C                 5.7700000000       36.0750000000       93.0930000000
O                 5.5030000000       35.6170000000       94.2070000000
C                 7.8410000000       35.6270000000       91.7590000000
C                 8.5200000000       34.8110000000       90.6890000000
C                 9.5880000000       35.5960000000       90.0950000000
N                10.5300000000       36.0120000000       91.1160000000
C                11.5770000000       36.7770000000       90.8390000000
N                11.7900000000       37.2100000000       89.5710000000
N                12.3810000000       37.1410000000       91.8310000000
H                 6.0410000000       35.5740000000       90.1380000000
H                 6.4520000000       34.2990000000       92.3990000000
H                 7.8360000000       36.5530000000       91.4680000000
H                 8.3600000000       35.5390000000       92.5740000000
H                 8.9000000000       34.0070000000       91.0770000000
H                 7.8820000000       34.5760000000       89.9980000000
H                10.0590000000       35.0610000000       89.4370000000
H                 9.2160000000       36.3870000000       89.6750000000
H                10.4060000000       35.7540000000       91.9270000000
H                11.2450000000       36.9880000000       88.9440000000
H                12.4700000000       37.7060000000       89.3950000000
H                12.2170000000       36.8810000000       92.6340000000
H                13.0650000000       37.6370000000       91.6710000000
N                 5.4690000000       37.3300000000       92.7630000000
C                 4.7700000000       38.1790000000       93.7250000000
C                 3.4340000000       37.5400000000       94.1720000000
O                 3.0080000000       37.7190000000       95.3220000000
C                 4.5850000000       39.5800000000       93.1330000000
H                 5.6510000000       37.7030000000       92.0100000000
H                 5.3050000000       38.2850000000       94.5280000000
H                 4.1730000000       40.1530000000       93.7990000000
H                 5.4530000000       39.9350000000       92.8840000000
H                 4.0160000000       39.5200000000       92.3500000000
N                 2.7770000000       36.7400000000       93.3170000000
C                 1.5600000000       36.0850000000       93.7990000000
C                 1.7980000000       35.1670000000       94.9880000000
O                 0.8300000000       34.7660000000       95.6540000000
C                 0.9190000000       35.2260000000       92.7400000000
H                 3.0040000000       36.5730000000       92.5040000000
H                 0.9630000000       36.8100000000       94.0410000000
H                 0.1030000000       34.8430000000       93.0960000000
H                 0.7170000000       35.7760000000       91.9670000000
H                 1.5350000000       34.5190000000       92.4910000000
N                 3.0500000000       34.7770000000       95.2330000000
C                 3.3430000000       33.8270000000       96.3020000000
C                 3.7210000000       34.5030000000       97.6150000000
O                 3.8150000000       33.8350000000       98.6540000000
C                 4.4640000000       32.8950000000       95.8690000000
C                 4.1360000000       32.2030000000       94.5720000000
C                 5.3710000000       31.5440000000       93.9200000000
N                 4.9810000000       30.9130000000       92.6530000000
C                 4.9290000000       29.5960000000       92.4290000000
N                 5.2950000000       28.7300000000       93.3950000000
N                 4.5130000000       29.1570000000       91.2300000000
H                 3.7400000000       35.0460000000       94.7970000000
H                 2.5530000000       33.2900000000       96.4690000000
H                 5.2770000000       33.4080000000       95.7450000000
H                 4.5990000000       32.2180000000       96.5510000000
H                 3.4800000000       31.5080000000       94.7400000000
H                 3.7780000000       32.8530000000       93.9470000000
H                 6.0460000000       32.2170000000       93.7400000000
H                 5.7310000000       30.8640000000       94.5110000000
H                 4.7690000000       31.4330000000       92.0020000000
H                 5.5630000000       29.0250000000       94.1580000000
H                 5.2610000000       27.8840000000       93.2500000000
H                 4.2860000000       29.7200000000       90.6210000000
H                 4.4740000000       28.3120000000       91.0710000000
N                 3.8850000000       35.8220000000       97.5980000000
C                 4.2180000000       36.6090000000       98.7830000000
C                 3.0330000000       36.6900000000       99.7360000000
O                 1.8890000000       36.9470000000       99.3120000000
C                 4.6540000000       38.0080000000       98.2890000000
C                 5.9930000000       37.8160000000       97.5480000000
C                 4.5350000000       39.0150000000       99.3780000000
C                 6.5240000000       39.0310000000       96.9490000000
H                 3.8060000000       36.3030000000       96.8890000000
H                 4.9340000000       36.1870000000       99.2840000000
H                 4.0690000000       38.4120000000       97.6300000000
H                 6.6520000000       37.4880000000       98.1790000000
H                 5.8640000000       37.1700000000       96.8370000000
H                 4.8600000000       39.8700000000       99.0540000000
H                 3.6030000000       39.0920000000       99.6360000000
H                 5.0650000000       38.7250000000      100.1360000000
H                 7.3210000000       38.8100000000       96.4420000000
H                 5.8530000000       39.4120000000       96.3620000000
H                 6.7440000000       39.6600000000       97.6530000000
N                 3.2960000000       36.5100000000      101.0370000000
C                 2.2520000000       36.7080000000      102.0500000000
C                 2.6810000000       37.7210000000      103.0870000000
O                 2.4630000000       37.5430000000      104.2810000000
C                 1.9060000000       35.4060000000      102.7410000000
O                 3.0970000000       34.6910000000      102.8590000000
H                 4.0620000000       36.2760000000      101.3520000000
H                 1.4660000000       37.0470000000      101.5930000000
H                 1.5360000000       35.5830000000      103.6200000000
H                 1.2680000000       34.9050000000      102.2080000000
H                 2.9600000000       33.9690000000      103.2650000000
N                 4.9420000000       43.5610000000       99.2810000000
C                 4.3790000000       43.1810000000       97.9730000000
C                 4.7300000000       44.2020000000       96.8810000000
O                 5.4620000000       43.8700000000       95.9440000000
C                 2.8800000000       42.9810000000       98.1100000000
C                 2.7200000000       41.7880000000       99.0030000000
C                 2.2530000000       42.7890000000       96.7970000000
C                 1.2320000000       41.4740000000       99.2880000000
H                 4.4000000000       43.4790000000       99.9440000000
H                 4.7930000000       42.3530000000       97.6830000000
H                 2.4390000000       43.7570000000       98.4900000000
H                 3.1180000000       41.0130000000       98.5740000000
H                 3.1620000000       41.9620000000       99.8490000000
H                 1.3000000000       42.6540000000       96.9180000000
H                 2.4080000000       43.5790000000       96.2540000000
H                 2.6460000000       42.0120000000       96.3690000000
H                 1.1800000000       40.7410000000       99.9210000000
H                 0.8080000000       42.2630000000       99.6600000000
H                 0.7970000000       41.2250000000       98.4570000000
N                 8.4920000000       44.7220000000       96.1700000000
C                 8.8590000000       43.5450000000       95.3840000000
C                 8.3920000000       43.6580000000       93.9540000000
O                 9.1470000000       43.3510000000       93.0440000000
C                 8.2450000000       42.2950000000       95.9220000000
C                 8.6720000000       41.0920000000       95.2180000000
C                 9.6120000000       40.2630000000       95.7560000000
C                 8.1300000000       40.7730000000       94.0280000000
C                 9.9740000000       39.1280000000       95.1290000000
C                 8.5120000000       39.6350000000       93.3650000000
C                 9.4360000000       38.8170000000       93.9120000000
H                 8.0030000000       44.5640000000       96.8600000000
H                 9.8260000000       43.4920000000       95.4380000000
H                 8.4950000000       42.1990000000       96.8540000000
H                 7.2810000000       42.3600000000       95.8420000000
H                10.0090000000       40.4850000000       96.5680000000
H                 7.4890000000       41.3310000000       93.6500000000
H                10.5910000000       38.5550000000       95.5240000000
H                 8.1360000000       39.4270000000       92.5400000000
H                 9.7040000000       38.0470000000       93.4630000000
N                 7.1260000000       44.0300000000       93.7320000000
C                 6.5990000000       44.1410000000       92.3670000000
C                 7.3350000000       45.1990000000       91.5400000000
O                 7.8380000000       44.8970000000       90.4620000000
C                 5.1040000000       44.4260000000       92.4450000000
O                 4.4480000000       43.3410000000       93.1300000000
C                 4.4930000000       44.6360000000       91.0620000000
H                 6.5570000000       44.2220000000       94.3470000000
H                 6.7340000000       43.3000000000       91.9030000000
H                 4.9610000000       45.2490000000       92.9370000000
H                 4.6570000000       43.3470000000       93.9440000000
H                 3.5390000000       44.7950000000       91.1410000000
H                 4.9050000000       45.4010000000       90.6300000000
H                 4.6370000000       43.8500000000       90.5130000000
N                10.9100000000       44.1200000000       90.4140000000
C                10.8670000000       43.0450000000       89.4260000000
C                10.4390000000       43.5360000000       88.0480000000
O                11.1220000000       43.2880000000       87.0390000000
C                 9.9220000000       41.9370000000       89.8590000000
S                 9.9190000000       40.4390000000       88.7800000000
H                10.4970000000       43.9520000000       91.1490000000
H                11.7690000000       42.6900000000       89.3700000000
H                10.1730000000       41.6520000000       90.7520000000
H                 9.0190000000       42.2910000000       89.8670000000
N                 9.3190000000       44.2450000000       87.9720000000
C                 8.8660000000       44.6610000000       86.6520000000
C                 9.8570000000       45.6390000000       86.0040000000
O                10.3290000000       45.4050000000       84.8900000000
C                 7.4430000000       45.1820000000       86.7370000000
C                 7.0240000000       45.7410000000       85.4530000000
C                 6.5810000000       44.0020000000       87.0470000000
H                 8.8280000000       44.4870000000       88.6350000000
H                 8.8490000000       43.8920000000       86.0610000000
H                 7.3680000000       45.8770000000       87.4100000000
H                 6.1130000000       46.0640000000       85.5320000000
H                 7.6160000000       46.4730000000       85.2200000000
H                 7.0720000000       45.0480000000       84.7760000000
H                 5.6580000000       44.2930000000       87.1100000000
H                 6.6740000000       43.3480000000       86.3370000000
H                 6.8650000000       43.6170000000       87.8910000000
N                13.1810000000       43.4310000000       84.9540000000
C                12.8610000000       42.6010000000       83.7900000000
C                12.9040000000       43.4290000000       82.5060000000
O                13.7350000000       43.2130000000       81.6200000000
C                11.4660000000       41.9750000000       83.8440000000
O                11.3470000000       41.0180000000       84.8620000000
H                12.7400000000       43.2280000000       85.6640000000
H                13.5220000000       41.8910000000       83.7900000000
H                10.8180000000       42.6790000000       84.0050000000
H                11.2850000000       41.5460000000       82.9930000000
H                10.6700000000       41.1810000000       85.3320000000
N                 5.5462567195       26.0325761255       84.4370055949
C                 5.3975511332       27.3170104946       85.0930055949
C                 5.0922045307       28.4101346652       84.0780055949
O                 4.4019951708       29.3686569860       84.4210055949
C                 6.6468041236       27.6707801455       85.9200055949
C                 7.1934250262       26.4995553213       86.7550055949
O                 6.5022110171       26.0903375387       87.7260055949
O                 8.3255119172       26.0283873351       86.4600055949
H                 6.3475122873       25.7223914788       84.4010055949
H                 4.6590435860       27.2618779012       85.7190055949
H                 7.3498719618       27.9565293624       85.3170055949
H                 6.4220260499       28.3894531015       86.5320055949
N                 5.8721030510       33.4989585272       76.8760055949
C                 6.6918888569       34.1468691942       77.9010055949
C                 8.1551974891       33.7973940925       77.7110055949
O                 8.9945147292       34.6811341959       77.5360055949
C                 6.2495401826       33.7486988157       79.3100055949
C                 4.7792578298       34.0640950791       79.6460055949
C                 4.2941527120       33.3118683682       80.9070055949
O                 4.9473550303       32.3712479711       81.3660055949
N                 3.1238241513       33.6907998394       81.4240055949
H                 5.2279749218       33.0232958808       77.1880055949
H                 6.5683979703       35.1049767043       77.8140055949
H                 6.3712990184       32.7915913056       79.4100055949
H                 6.8026183303       34.2226582681       79.9500055949
H                 4.6872477053       35.0167288687       79.8080055949
H                 4.2176848368       33.7994221232       78.9010055949
H                 2.6767762416       34.3264901464       81.0560055949
H                 2.8158363476       33.2993493153       82.1250055949
H                 2.6600512390       28.8988066647      100.4181856181
H                 0.4814485168       28.1182259584       98.1312607223
H                -1.3013750019       31.7055012441      100.9532299085
H                -3.7392234419       33.7283048431       97.4199141477
H                -1.1681788710       43.5599103525       95.5873309313
H                -3.3615554700       44.5702154102       91.1476167103
H                 1.1408956789       45.4338619641       90.4011157416
H                -0.1774710388       45.4787554532       87.1756769215
H                15.9001614416       41.0908484457       96.2899937043
H                13.7538832835       41.8427577898       92.0957582573
H                16.5973608736       40.7710342299       91.2764667483
H                14.1970981180       33.3544450682       85.6927573919
H                10.2706773918       31.4750868546       86.6902015649
H                 3.1526559601       38.5563919032      102.8047571553
H                 5.6549759050       43.0428490582       99.4631673969
H                 4.3659398548       45.1320616711       96.9304519822
H                 9.2374050783       45.1260653223       96.4718318814
H                 7.4062737536       46.1374026364       91.8781132119
H                11.7657591269       44.2935769391       90.6320535782
H                10.1239379235       46.4732832545       86.4864060491
H                14.0546010664       43.3456214870       85.1528257689
H                12.2466509990       44.1695325373       82.3663438079
H                 5.0564678822       25.4149295298       84.8713091497
H                 5.4514381943       28.3426543190       83.1472007938
H                 5.5037525076       34.1257000881       76.3454277090
H                 8.4470362932       32.8410620472       77.7271031650
