 383 
 
N                24.2844396747       45.9265298270       16.0682816959
C                23.8589682738       45.4884348495       14.7168816667
C                24.5535978800       44.2154216161       14.1851524592
O                24.1270651728       43.7794130233       13.1292526298
C                24.0880015658       46.6389622983       13.7166019252
O                25.3985394771       47.0861418683       13.9619020541
H                25.2436878410       46.3140562082       15.9851036542
H                23.6740818647       46.6940309397       16.3796082354
H                24.2208194567       45.0970533537       16.7440669058
H                22.7902473017       45.2418236384       14.7273266889
H                23.9566565528       46.2692380732       12.6965248232
H                23.3562159775       47.4408630466       13.8795406037
H                25.6816559679       47.7115303329       13.2897621829
N                25.5289904268       43.6102315930       14.8876571189
C                26.2548435372       42.4649902769       14.3287493950
C                25.8492456582       41.0985598489       14.9088377726
O                26.4489735069       40.0987357124       14.5406713898
C                27.7456308443       42.5544029205       14.5996193201
C                28.1980199765       43.8550506198       14.0033191314
O                28.3453530114       44.8558789489       14.6860283057
N                28.3415024636       43.8055571806       12.6760377811
H                26.0460108770       44.1059873669       15.6034889571
H                26.0516161234       42.4203108310       13.2519644413
H                27.9559921199       42.5265681346       15.6686215305
H                28.2374524144       41.7094388361       14.1246399231
H                28.0938613487       42.9941252778       12.1358773780
H                28.5702630320       44.6450086923       12.1667824122
N                24.9565939085       41.0916222071       15.8989863819
C                24.4442411552       39.8191821916       16.4026636065
C                23.8801885755       39.0101667093       15.2361636205
O                23.2899235937       39.5915685938       14.3289701681
C                23.2977124680       40.1683271092       17.3433414364
C                22.7606571747       38.9234763315       18.1054514328
C                21.8383444820       39.3928734884       19.2250095920
O                22.3009535524       40.1497589190       20.1262724070
O                20.6638906134       38.9885369734       19.2029856094
H                24.3556203081       41.9000507834       16.0214027926
H                25.2457187156       39.2719482911       16.9010673611
H                23.6705666956       40.8609451705       18.0980542424
H                22.4877635032       40.6370069233       16.7820574404
H                22.2082080781       38.2554152327       17.4483627216
H                23.5960746902       38.3793374146       18.5478161804
N                24.0324754896       37.6774804839       15.3474980407
C                23.4383210420       36.8128636978       14.3327066516
C                22.5893055194       35.7285311951       14.9760255158
O                22.8228273045       35.2497460805       16.0745378283
C                24.5728776187       36.1203966562       13.5587542612
C                25.3969368905       37.1382489893       12.7873544717
C                26.6736093463       36.5045116632       12.2457491295
O                27.1185772518       35.4403464595       12.6902520111
N                27.2200658383       37.1585589598       11.2398103653
H                24.6127473354       37.2691022292       16.0830628944
H                22.8384486285       37.4396391982       13.6714704764
H                25.2077705346       35.5946404186       14.2696036114
H                24.1576709278       35.3858286230       12.8685237215
H                24.8343361324       37.5654314612       11.9581120075
H                25.7002133389       37.9597248153       13.4410970921
H                26.8676758848       38.0625938870       10.9387763252
H                28.0982789917       36.8487960128       10.8483004546
N                21.5649378662       35.2721669645       14.2313040323
C                20.7984302673       34.1142789409       14.6720622890
C                20.6760626044       33.1015585233       13.5417959169
O                20.7098684508       33.4682151860       12.3647292980
C                19.4229219192       34.5780599023       15.2069671967
O                18.8800034582       33.4965864567       15.9572035815
C                18.5544540718       35.0313448375       14.0638880830
H                21.3821028449       35.6529021461       13.3075911344
H                21.3371966233       33.6634596285       15.5110075571
H                19.6217059904       35.4288423752       15.8791458447
H                17.9256796584       33.6503834194       16.1461235814
H                17.6299890866       35.4629676788       14.4465361650
H                19.0803018185       35.7800754164       13.4794214130
H                18.3025417954       34.1869143973       13.4272947455
N                22.7545137468       36.8515342087        5.8290166193
C                24.2149172645       36.7149572939        5.6314174300
C                24.5480444308       35.2736135066        5.2361642321
O                25.6538365308       35.0357515771        4.7838303480
C                25.0542482172       37.1872284608        6.8374390192
C                24.8179660247       38.6875870766        7.0803450979
C                24.6783797345       36.4450165124        8.0987092988
H                22.3261963480       36.4097613079        6.6293729406
H                24.4613375664       37.3292333951        4.7603527180
H                26.1029924255       37.0121557675        6.5871348483
H                25.4211224273       39.0101205285        7.9239594437
H                25.0976599231       39.2647903611        6.2036907207
H                23.7664432036       38.8574043549        7.3034274738
H                25.2889869825       36.7919760442        8.9302422243
H                23.6323214291       36.6061999050        8.3476418457
H                24.8470421977       35.3755278082        7.9888147491
N                21.1651461241       32.4117211558        8.1538305335
C                21.7172594179       33.2161110350        9.2287686981
C                21.2692676088       34.6530690768        8.9517267533
O                21.4821844975       35.1430820709        7.8373187015
C                23.2587975404       33.1826698394        9.2568938048
C                23.7299106519       34.0319198084       10.4597719407
C                23.7703020960       31.7387744631        9.4524070546
H                21.3520223990       32.6997615902        7.1998231923
H                21.3084607146       32.8506944763       10.1724466739
H                23.6398033439       33.5920039463        8.3208394937
H                24.8114217968       33.9907237915       10.5539234832
H                23.4335525647       35.0706932510       10.3406418699
H                23.2794733692       33.6460923370       11.3702126531
H                24.8554516930       31.7308731405        9.4878356099
H                23.3761413653       31.3407439849       10.3825057483
H                23.4430420973       31.0900178979        8.6435877857
N                21.2602004377       38.7890230584       10.5118981857
C                22.1384852659       39.5974980088       11.3268546328
C                21.4271537868       40.9381301487       11.5705427949
O                20.8894483326       41.5266623545       10.6251304777
C                23.4307058894       39.9116151564       10.5389628910
C                24.4421843578       40.7012959862       11.3912386565
C                25.7742215395       40.8639727393       10.6387184144
O                26.3320073817       39.8091966169       10.2960025213
O                26.2255076254       42.0054951671       10.4107240728
H                21.1026787688       39.1045646565        9.5589005995
H                22.3566555918       39.0832430452       12.2601612529
H                23.8884987849       38.9734809903       10.2182037819
H                23.1654958480       40.4811674876        9.6463990261
H                24.0388238177       41.6790418531       11.6570583175
H                24.6481076825       40.1503444758       12.3101500277
N                21.5132382644       41.4383594382       12.7964773615
C                21.0677583308       42.7725619008       13.1368687038
C                20.8579006898       42.8870506997       14.6290778060
O                21.0206867947       41.9283734386       15.3623131095
H                21.9810257174       40.9145110181       13.5294871183
H                21.8355845720       43.4982045378       12.8353914873
H                20.1573523644       43.0173092538       12.5836792468
N                20.5687276188       44.1161899259       15.0835303424
C                20.4469312702       44.3319103781       16.5354706724
C                19.3620492751       43.4513096332       17.1173081396
O                18.2407977184       43.3941693549       16.6160557174
C                20.1031146441       45.8251573130       16.7808706340
C                20.0734567590       46.1446377783       18.2619053670
C                19.7928765017       47.6410692467       18.4711452730
N                20.9437087242       48.3620903652       18.0144935040
C                20.9604595094       49.6388053666       17.6260227157
N                19.8777407094       50.3857615649       17.7728479516
N                22.0605489340       50.1486635679       17.0909881142
H                20.2271369071       44.8296090310       14.4377025716
H                21.4041822188       44.0619665345       16.9902441150
H                20.8285115243       46.4459559731       16.2565569555
H                19.1161361050       46.0029689834       16.3521826343
H                19.2805717709       45.5715516710       18.7437363860
H                21.0141486769       45.8766515135       18.7411538036
H                18.9177866166       47.9242546148       17.8842871154
H                19.5864888199       47.8371001450       19.5289850726
H                21.8333784768       47.9166175877       18.1958076481
H                19.0291551975       50.0283806029       18.1750203883
H                19.8477055142       51.3053205521       17.3594828128
H                22.9316845346       49.6480194475       17.0631495782
H                22.0785653689       51.1366114069       16.8518575415
N                19.7240032036       42.7487482132       18.2010544549
C                18.7453937349       41.9292553740       18.9172212670
C                18.0525700470       40.9115206500       18.0228162759
O                16.9345794742       40.4638080700       18.3345705839
C                17.6136186260       42.7068820529       19.6227299505
C                16.8826248509       41.9193205145       20.7194567540
O                17.6044329070       41.3948595582       21.6337788362
O                15.6397770796       41.8312998142       20.7108313273
H                20.6547428075       42.8454655694       18.6115819119
H                19.3069990069       41.3641364070       19.6697976796
H                18.0504232408       43.5769983824       20.1236485264
H                16.8712662625       43.0441301027       18.9021344754
N                18.7590034185       40.4404952898       17.0114220467
C                18.0633357248       39.5541248610       16.0459185575
C                17.7206430848       38.2161133217       16.6953161099
O                16.7758151670       37.5135855107       16.2625244716
C                18.9013752127       39.4051694664       14.7569686979
C                20.2119255808       38.6820988201       15.0599755357
C                18.0070405858       38.7067337821       13.7011476173
H                19.6109832785       40.8906251218       16.7073147607
H                17.1048489323       40.0234234184       15.7869785264
H                19.1323194083       40.4121980878       14.4022579136
H                20.7707618831       38.5347462524       14.1396309305
H                20.8193144531       39.2691567605       15.7391004902
H                20.0283220340       37.7061814627       15.5033642316
H                18.6007807998       38.4641086489       12.8234214609
H                17.5845688757       37.7960718301       14.1069226380
H                17.2009812875       39.3707163651       13.4082008383
N                18.4559599919       37.7542881843       17.7068675423
C                18.0534146636       36.4715619535       18.2739511848
C                16.6792796970       36.6254547201       18.9493454955
O                15.7736386515       35.8462583193       18.6389886091
C                19.1044632512       35.9729256150       19.3354000322
C                18.5615498269       34.7878734540       20.1125132356
C                20.3999645438       35.5701876666       18.6101453489
H                19.2211970890       38.2695615505       18.1334467278
H                17.9449815087       35.7396773144       17.4713137880
H                19.3187413411       36.8079682509       20.0035181493
H                19.3158660880       34.4236717036       20.8043722888
H                17.6624136599       35.0545488192       20.6596530953
H                18.3074308091       33.9722297951       19.4385714398
H                21.1546434461       35.2727420859       19.3315359683
H                20.2215011017       34.7260644792       17.9504846360
H                20.7974452859       36.3963407665       18.0286345759
N                21.8848152600       33.9512381731       22.3329511509
C                23.0592734169       34.2922862020       21.5163302950
C                24.0567238766       33.1402180751       21.4553571259
O                24.6272072505       32.8320377825       20.3998652094
C                23.6659016763       35.5882132745       22.0931811447
C                25.1189334596       35.7677054942       21.6777039914
C                22.7961208044       36.7850468153       21.6899073131
H                21.6451593896       34.5104059971       23.1526155474
H                22.7517347812       34.4554657288       20.4771175018
H                23.6375799751       35.4763294170       23.1832679147
H                25.4745533955       36.7455621974       21.9873956981
H                25.7389524633       35.0034375233       22.1403657996
H                25.1875257786       35.6800341021       20.5963256695
H                23.1817643030       37.6968686772       22.1335454552
H                22.8137191695       36.9053201323       20.6088712497
H                21.7667222942       36.6374128720       21.9947733102
N                22.8184916254       30.4071339632       19.2480016552
C                22.8970391733       30.7731621670       17.8401258533
C                24.3035841710       30.5471763306       17.3389095433
O                24.5322702479       30.0393939412       16.2635621632
C                22.4969640381       32.2452470032       17.7185275824
H                22.5135371171       31.0992748832       19.9224745142
H                22.2278555790       30.1359474485       17.2488735496
H                22.6548545249       32.5863072736       16.6998661402
H                21.4580780020       32.3785625798       17.9911970665
H                23.1202657709       32.8403689735       18.3820416988
N                25.3391296371       30.8995139416       18.1317259426
C                26.6658369031       30.7117740462       17.6046462878
C                26.9700598631       29.2169111577       17.3409693034
O                27.6335684056       28.8595282611       16.3478050959
C                27.7172079235       31.2636173529       18.5956394265
C                27.5845039398       32.7749244775       18.7274460730
C                28.6258571396       33.2529050503       19.7645289505
C                28.4907729664       34.7278088173       20.0584344814
N                29.1705493039       35.0400743318       21.3448139465
H                25.1784589438       31.4243877213       18.9830796960
H                26.7606596001       31.2220657472       16.6376403940
H                27.5710894021       30.7792880986       19.5599655890
H                28.7076918660       31.0039707832       18.2216542491
H                27.7736039142       33.2513355140       17.7673000582
H                26.5859392119       33.0496959054       19.0634023890
H                28.4613146784       32.6920254241       20.6874278207
H                29.6231848865       33.0121134863       19.3988810569
H                28.9391432361       35.3277218887       19.2680103623
H                27.4378193032       34.9936987400       20.1532210603
H                29.0569690395       36.0620744787       21.5050717213
H                28.7450114946       34.5269384223       22.1556066522
H                30.1614492714       34.7870254654       21.3042292373
N                24.9699394564       28.1509248733       14.1984250134
C                25.5846448596       28.6770743900       12.9975605543
C                26.8257960930       27.8258567108       12.6029488812
O                27.0703303504       27.5808391082       11.4346164318
C                25.9329970283       30.1723469901       13.1565172294
C                24.6437881424       31.0046093523       13.2544811904
C                26.8382812905       30.6702260553       12.0245769119
C                24.9249966593       32.4372047436       13.7690420232
H                24.8998653868       28.7648226854       15.0048940437
H                24.8786892983       28.5550431909       12.1623025066
H                26.4768122993       30.2670421357       14.1027575646
H                24.1674073366       31.0505175228       12.2766442836
H                23.9571770569       30.5236734309       13.9510330227
H                27.0544180507       31.7247061070       12.1506730836
H                27.7827086596       30.1343839409       12.0231841126
H                26.3586813480       30.5093244569       11.0622605600
H                23.9854561865       32.9773912024       13.8663724013
H                25.3904299439       32.3800431530       14.7480444885
H                25.5758668717       32.9785857143       13.0920585145
N                29.2010108914       32.3511263875        5.2247678628
C                28.6783948308       33.6109550266        5.6959737333
C                29.2269161471       34.7050785481        4.7602433916
O                30.4197454633       34.7864452832        4.4844308781
C                29.0640629444       33.8629096563        7.1378792157
C                27.9932548437       33.2352001703        8.0669956055
C                28.0792833464       31.6963210809        8.1636757243
C                28.0131091554       33.8542760095        9.4228821092
H                30.1133859690       32.0667915610        5.5520656214
H                27.5936738950       33.5889201382        5.5583158463
H                30.0542319374       33.4551355552        7.3395588051
H                29.0900561386       34.9365517430        7.3212044373
H                27.0205874929       33.4709308338        7.6142536347
H                27.2598395293       31.3198202962        8.7673998434
H                28.0248024489       31.2391984426        7.1803338830
H                29.0146949587       31.4017396029        8.6319797816
H                27.2397391421       33.4292430536       10.0580630699
H                28.9687034005       33.6836521138        9.9136010066
H                27.8492947208       34.9275234315        9.3627155580
O                24.6291614685       44.2622521220       10.4598174323
H                25.1970119833       43.4651855712       10.3612772412
H                24.4797616955       44.3079527843       11.4141076773
O                24.0541151830       43.5700102005       17.3286418114
H                24.8792134972       43.2791049928       17.7331034128
H                23.3620701539       43.3586230944       17.9844738147
O                21.5914500689       40.4118114982       22.7615047594
H                21.8238191553       40.2891980882       21.8260236928
H                20.9746464870       41.1663124503       22.7816192893
O                24.8823610914       40.0663102489       20.8225788123
H                24.9873965021       39.8916092042       21.7811450569
H                23.9274238994       40.0775930929       20.6257755532
O                18.7691042271       38.9266247025       21.1186651803
H                19.5128510082       39.0426243784       20.4865278091
H                18.4028360088       39.8075053794       21.3183028633
O                24.4116580733       35.2067088383       18.4291982720
H                25.1036597579       35.7630724809       18.0336628136
H                23.7471600237       35.1139641814       17.7418679645
O                29.4809222076       33.8230788619       12.6316259639
H                30.0526426539       34.5655289853       12.3753873779
H                28.5928058030       34.1945194434       12.6894674659
O                22.2260684321       42.8809364380       19.4234272622
H                22.3156926911       41.9465027611       19.6889531379
H                22.3090444701       43.3816423680       20.2424335877
O                28.2553040935       38.1071429485       15.1349370413
H                29.1764088115       38.3699863294       14.9869320513
H                27.6968987244       38.7203716408       14.6519142977
O                27.4278996410       35.0181767313       15.5680615447
H                27.2979633834       35.1552975261       14.6175560851
H                26.5675033231       34.8493092826       15.9600726976
O                26.0449184516       36.9068024460       17.2877871448
H                26.8175579299       36.8255102441       16.7093820089
H                26.3058122795       37.5129320574       18.0143697625
O                29.7208919640       37.3539141215        9.7019125676
H                30.6516571642       37.4225166765        9.4709416689
H                29.2723013194       38.0647253093        9.2174922373
O                29.1870470384       40.6699769747       16.3497787799
H                29.9727819373       40.3644654136       15.8837861063
H                28.5423100584       39.9671040671       16.2021013108
O                30.9222999587       35.9305704058       11.6920194527
H                31.5921387759       35.6716153866       11.0418303170
H                30.2856929518       36.4778245679       11.2253630429
O                26.6870673052       38.7016525095       19.1542856151
H                27.1542097849       39.4577743309       18.7822719659
H                25.9869043696       39.0884295273       19.7263790680
O                31.7232227140       36.7868523539       13.8442823383
H                31.1914921954       36.0062973973       14.0131055799
H                32.4869675017       36.7159587207       14.4621752984
O                32.5490431685       35.0964803746        9.7507322850
H                32.2795840575       34.1633837577        9.6449102466
H                32.4171299846       35.4835801073        8.8665476695
O                30.8718850535       38.9309083837       15.1575206904
H                31.1435013511       38.2364244779       14.5102419202
H                31.3411502870       38.6746442379       15.9570592124
O                25.8165614023       42.6670394308       21.5672171969
H                25.5468587325       41.8057761854       21.2091786520
H                26.3624259689       43.0820966295       20.9001693792
N                35.6680513028       36.2663480692        9.2728837786
C                35.7332285556       36.8842876376       10.5946945357
C                35.6639156222       35.8989333792       11.7532813267
O                36.3909041497       36.0777237195       12.7358948033
C                34.6000902531       37.9309022018       10.6963402530
C                34.6309696839       38.6281241323       12.0132068634
C                33.6880783413       39.8480982565       12.0078395819
O                33.4592695424       40.4510317905       10.9638022427
N                33.1861489279       40.2131573626       13.1839003380
H                35.0975089009       36.7254537214        8.5630044163
H                36.7026830785       37.3923875126       10.7110602910
H                34.7303318857       38.6497117772        9.8874220015
H                33.6479848864       37.4177247974       10.5614472245
H                34.3340202685       37.9628263322       12.8234931090
H                35.6378550091       38.9943429007       12.2307488908
H                33.3037803358       39.6335710846       14.0098423448
H                32.4626463290       40.9139731326       13.1929056289
N                34.7659936186       34.9190128942       11.6614780884
C                34.6688540898       33.9372133532       12.7160850277
C                36.0067914478       33.2729938562       13.0197499532
O                36.3033730662       32.9659630155       14.1847013632
C                33.6559723100       32.8187123450       12.3150953405
O                34.0087599761       32.1251563343       11.1505126567
H                34.0913412711       34.9043961833       10.8946222068
H                34.3041906896       34.4069457007       13.6389370153
H                33.6137775219       32.1091876469       13.1485498478
H                32.6760690034       33.2911867318       12.2122562551
H                33.2997143979       32.2407263570       10.4707795037
H                20.5671965689       32.1297268238       13.7508206381
H                22.5426581560       37.7223399194        5.9115673480
H                23.8645982295       34.5528043223        5.3516432765
H                21.4854249407       31.5726185015        8.2115212190
H                20.8116734826       35.1808966286        9.6672724829
H                21.5970207260       37.9574392932       10.4410424526
H                16.5328003171       37.3468754233       19.6261733616
H                21.1435733003       33.9896525090       21.8239475204
H                24.2634761657       32.6136883290       22.2799903276
H                22.2394536972       29.7256377929       19.3493823613
H                26.6326563446       28.5190005895       17.9726968591
H                24.1237134850       27.9026926417       14.0187520759
H                27.4353200349       27.4718479838       13.3122854624
H                28.6462507320       31.6856933573        5.4685711601
H                28.6048858959       35.3765873026        4.3575594470
H                36.4949132503       36.2237538606        8.9200593845
H                36.6502664454       33.0827406607       12.2783029564
