 481 
 
N                29.8854132828       11.5801208226       10.8856204300
C                30.2938504521       12.2764162901       12.0793406451
C                29.1554500240       12.2525621422       13.1023301599
O                29.3757977517       12.0896288421       14.3061816820
C                30.7047799371       13.7085614277       11.7315214759
C                31.2088776175       14.4818158006       12.9538186539
C                32.4788116323       13.8943829742       13.5407448252
O                33.1264000799       13.0032864269       12.9943955801
N                32.8727079893       14.4212965604       14.7000407104
H                29.9401939812       12.0751094990        9.9981494959
H                31.1383538753       11.7476281623       12.5401202518
H                31.5030495271       13.6480907280       10.9918582807
H                29.8479410201       14.2332731856       11.3100507513
H                31.4073508940       15.5159091877       12.6716581344
H                30.4536044568       14.4897317432       13.7398243191
H                32.3953731999       15.1933356799       15.1547485369
H                33.7073036748       14.0584202545       15.1316526599
N                27.9298358856       12.4522292841       12.5983595184
C                26.7777022884       12.4687377951       13.4723067146
C                26.6653686989       11.1272391921       14.1933074292
O                26.4574043172       11.0651282549       15.4021010279
C                25.4742275111       12.7365411916       12.7245800413
C                25.2536106470       14.2132769014       12.3861497199
C                24.1238525978       14.3462292880       11.3737101700
C                24.9287713663       15.0148727323       13.6407714378
H                27.8023204251       12.6957351989       11.6199833189
H                26.9332750876       13.2154479883       14.2617987451
H                25.4889530315       12.1305865708       11.8164814870
H                24.6515906144       12.3792438358       13.3478518801
H                26.1710248194       14.6065376258       11.9400935596
H                23.9540107245       15.3930355484       11.1352810244
H                24.3701540380       13.8124100853       10.4591687135
H                23.2016016848       13.9351141276       11.7764397377
H                24.6765864080       16.0361190353       13.3770906397
H                24.0802314364       14.5807066105       14.1661487197
H                25.7761204049       15.0309763446       14.3197984762
N                26.7932332487       10.0606991790       13.4081514094
C                26.6873739306        8.7221754651       13.9475089501
C                27.7314567313        8.5280209821       15.0449440330
O                27.4299723468        8.0256416783       16.1214992903
C                26.8142340089        7.6620573062       12.8572668139
C                25.5734038849        7.5846494517       11.9656763966
C                25.8392575662        6.8515096430       10.6298432002
O                26.9987193065        6.8923801186       10.1746378333
O                24.8673554223        6.3231947322       10.0465002937
H                26.9370001384       10.1908391040       12.4105357656
H                25.7184329102        8.6222320946       14.4602561959
H                27.6764020340        7.8987845277       12.2309584957
H                26.9934027599        6.6908096973       13.3231380023
H                24.7363396018        7.1066150250       12.4722775172
H                25.2786777303        8.5936715655       11.6657948589
N                28.9601239856        8.9798444147       14.7655351790
C                30.0578360270        8.7896757685       15.6982857844
C                29.7813588413        9.5190757532       17.0210391608
O                29.9051184534        8.9681137581       18.1188467741
C                31.3705895325        9.3036301325       15.0759805535
O                31.6966926113        8.6032432423       13.9015937728
C                32.5297117834        9.1333915362       16.0452770352
H                29.1612273933        9.3181014458       13.8286831208
H                30.1535163293        7.7198979106       15.9367505370
H                31.2282027489       10.3729157690       14.8460049772
H                31.0412945106        8.7941768567       13.2123763245
H                33.4519790308        9.4356329829       15.5597303304
H                32.3755704148        9.7402664424       16.9320296987
H                32.6095101514        8.0893963685       16.3371498505
N                29.4397496394       10.8017633004       16.9244746095
C                29.1593811740       11.5571994482       18.1311016987
C                27.9413953342       10.9951162795       18.8627598763
O                27.9424767446       10.9032508716       20.0850781805
C                28.9687233316       13.0610913985       17.8469112440
C                28.5558101584       13.7906706945       19.1266298927
C                30.2552579847       13.6673857455       17.2867429016
H                29.3057860685       11.2477410835       16.0224696427
H                30.0060077709       11.4199698761       18.8162478390
H                28.1732799807       13.1535530150       17.1011442564
H                28.4351928342       14.8497882214       18.9154234934
H                27.6162293777       13.4106627134       19.5145683969
H                29.3175096536       13.6560014099       19.8876192464
H                30.1296264939       14.7383533973       17.1584249947
H                31.0847265147       13.4890717088       17.9647484962
H                30.5012553081       13.2315321247       16.3217028473
N                26.8784009610       10.6870742790       18.1183379912
C                25.6530841337       10.2530324412       18.7631749863
C                25.8879481280        8.9359360498       19.4874602320
O                25.3902308188        8.7184681636       20.5848515635
C                24.5053293212       10.1674994156       17.7639955945
C                23.1702636353        9.6833034343       18.3631725625
C                22.7629157671       10.4737275789       19.6071899749
C                22.0813440459        9.8036084297       17.2905757404
H                26.8793490998       10.7693192147       17.1090832792
H                25.4074977170       10.9843413472       19.5448858272
H                24.3723602453       11.1593221251       17.3294448435
H                24.8017563777        9.4888255254       16.9616272346
H                23.2707586343        8.6283948551       18.6361169296
H                21.7512805349       10.2034999020       19.8986185878
H                23.4232089249       10.2526038633       20.4396999141
H                22.7949754405       11.5406594176       19.4034959147
H                21.1219403706        9.4864166664       17.6885742416
H                21.9961053001       10.8309370069       16.9461308805
H                22.3246293139        9.1726808674       16.4428484322
N                26.7202389039        8.0770549181       18.8945069751
C                27.0456109988        6.8275572770       19.5526500511
C                27.7230661337        7.0852230723       20.9081033092
O                27.4362684642        6.4559054882       21.9184580083
C                27.9396269751        5.9727863281       18.6642964883
C                28.1400305448        4.5930677417       19.2624538992
C                28.6075086454        3.5564813656       18.2350788113
O                28.7078449903        3.8571196665       17.0381578609
O                28.7984495401        2.3967361642       18.7144235689
H                27.0414700955        8.2046873166       17.9427896010
H                26.1134812820        6.2858397046       19.7740221224
H                27.4836322259        5.8678267015       17.6766938319
H                28.9062414802        6.4559692442       18.5180111231
H                28.8490676777        4.6038851350       20.0906053160
H                27.1979618924        4.2007242608       19.6587018713
N                28.6481448738        8.0459099139       20.8909152654
C                29.3657887221        8.4388337995       22.0803532771
C                28.4050631395        8.9115642023       23.1706308868
O                28.4820450727        8.5164747123       24.3343145952
H                28.8900066314        8.4825362803       20.0099658198
H                29.9455655280        7.5994970528       22.4799493348
H                30.0344114182        9.2569306675       21.8170760945
N                27.5268959097        9.8290059686       22.7671559005
C                26.5330179041       10.3612752192       23.6804835848
C                25.7287998431        9.2205090279       24.2974723300
O                25.5888070745        9.1228985641       25.5134629582
C                25.6535750585       11.3933047644       22.9669052140
C                24.3099689564       11.5774788654       23.6634770688
C                26.4073086091       12.7186811112       22.8965953072
H                27.5179350607       10.1355349386       21.7961837933
H                27.0501805042       10.8398514025       24.5234744943
H                25.4718511552       11.0205143350       21.9535889004
H                23.7682147650       12.4043233411       23.2138498613
H                23.7016012882       10.6804541605       23.5820973273
H                24.4528838646       11.7888416996       24.7193685716
H                25.8210892828       13.4380126634       22.3312743040
H                26.5570962317       13.1032045216       23.9020903933
H                27.3622676587       12.5786145438       22.3978054373
N                25.1860225032        8.3587442064       23.4409985294
C                24.3836717653        7.2675424264       23.9434182935
C                25.1537372818        6.4718209011       25.0015110829
O                24.6318154946        6.1046240701       26.0482641998
C                23.9195187201        6.3590357393       22.8027166086
C                23.2676980295        5.1051933892       23.3695755625
C                22.9115139670        7.0961656498       21.9216538101
H                25.3409397148        8.4267350714       22.4398380048
H                23.5079798690        7.6788305867       24.4675786413
H                24.8037856783        6.0862647788       22.2176753307
H                22.8712020483        4.5185686040       22.5543863869
H                23.9669535907        4.5016634339       23.9458310603
H                22.4561678150        5.3785312918       24.0412744280
H                22.6194391236        6.4628265775       21.0888615215
H                22.0294327735        7.3511931446       22.4987118277
H                23.3492746052        7.9993682003       21.5109428131
N                26.4360868213        6.2230319930       24.7095100882
C                27.1947696762        5.3564624755       25.5741098547
C                27.2344908732        5.9216564912       26.9966491201
O                27.0473332771        5.2291611929       27.9911859609
C                28.6184560639        5.1612458311       25.0431773589
O                28.7737405163        3.7890159121       24.8282111863
H                26.7747180084        6.3408111259       23.7592839267
H                26.7249112533        4.3633584536       25.6344453475
H                28.7371968820        5.7330369574       24.1154811572
H                29.3582431697        5.5164820958       25.7776685132
H                29.5718721276        3.6215034449       24.3147229278
N                27.5783461860        7.2108417658       27.0857739649
C                27.7173691641        7.7928096185       28.4000018731
C                26.3407748450        7.9047323711       29.0655954189
O                26.2241213983        7.7936805800       30.2816529833
C                28.5383855469        9.0791150926       28.3562907317
C                27.8538973213       10.2079018413       27.5902464727
C                28.8973306080       11.2050471302       27.1116756005
O                29.1234069349       12.2680763458       27.6822208158
N                29.5251347366       10.8270230123       25.9874948757
H                27.7556113991        7.7549027171       26.2505446114
H                28.2649213767        7.0679646507       29.0191780761
H                28.7407607666        9.4002779429       29.3783940686
H                29.4940069483        8.8355557744       27.8874241356
H                27.3246124991        9.8111398590       26.7235085875
H                27.1348364030       10.7176245260       28.2307015979
H                29.3166250739        9.9444536161       25.5449504426
H                30.2226096595       11.4362296295       25.5826148412
N                25.2843831897        8.0850554002       28.2758070855
C                23.9684840821        8.0281702829       28.8814690117
C                23.7365110867        6.6637917203       29.5157145939
O                23.2093537014        6.5793950387       30.6185374495
C                22.8509760283        8.4181257800       27.9040946691
C                22.8531862692        9.9444056442       27.7430788203
C                21.5099092924        7.8854716221       28.4004851783
C                21.8366503578       10.4382739021       26.7247268984
H                25.3673634504        8.1846061841       27.2718935433
H                23.9583099767        8.7356867511       29.7231581756
H                23.0813278065        7.9453127476       26.9429914880
H                22.6504190473       10.4041289683       28.7112699222
H                23.8524429952       10.2453268973       27.4224243940
H                20.6984343070        8.2025137426       27.7551358804
H                21.5089448832        6.7979080435       28.4155939900
H                21.3114813285        8.2352829202       29.4100892791
H                21.9586315522       11.5054841876       26.5670215804
H                21.9901512166        9.9299963038       25.7754377598
H                20.8208351902       10.2564143368       27.0630272443
N                24.1508782561        5.5945298958       28.8485059246
C                23.9625969355        4.2800370826       29.4235608011
C                24.7963728276        4.1403979225       30.6997191208
O                24.3641561344        3.5838997071       31.7065379848
C                24.3278903987        3.1869318045       28.4296428174
C                23.1564848560        2.8976328152       27.4203395405
O                22.0001609321        2.9847065229       27.8718103566
O                23.4895289213        2.5529043661       26.2719110058
H                24.4865433189        5.6618661287       27.8967801259
H                22.9052897647        4.1510157154       29.7036311425
H                25.2297457487        3.4444968310       27.8732711547
H                24.5065277887        2.2521834995       28.9673919570
O                31.5542958366        6.8009181318       18.5058366345
H                32.2599924892        7.0894884836       19.0902811280
H                30.9710726538        7.5703045500       18.3849420404
O                29.7829237293       13.3951810755       25.0343172789
H                29.5843956520       13.3994209688       25.9807481648
H                28.9455933254       13.3811430938       24.5639266736
O                23.5129471322        5.5720710181       15.0185766552
H                24.0087112092        6.3867288126       14.8933993376
H                22.6511219194        5.6963323479       14.6077672303
O                23.6313745958        5.9069537122       17.7317729201
H                24.5430078455        5.6621489047       17.8979326529
H                23.4675980024        5.6489930518       16.8095790962
O                18.9726054486        6.0711544380       25.0343172789
H                19.0755413426        6.2409648497       25.9807481648
H                19.3791134018        6.8033228300       24.5639266736
O                27.9449718078       17.5767740252       15.0185766552
H                26.9915754238       17.5987894130       14.8933993376
H                28.2682709459       16.7682808325       14.6077672303
O                27.5957411556       17.5118938702       17.7317729201
H                27.3519317131       18.4237938271       17.8979326529
H                27.9010299374       17.4990395099       16.8095790962
N                19.0825291646        8.1474514818       12.5983595184
C                19.6728927531        9.1369741900       13.4723067146
C                18.5672876785        9.9050072338       14.1933074292
O                18.6174802199       10.1161651400       15.4021010279
C                20.5565546863       10.1319147621       12.7245800413
C                21.9457537577        9.5846067160       12.3861497199
C                22.6257729266       10.4965296935       11.3737101700
C                22.8023757513        9.4651278698       13.6407714378
H                19.3571692030        8.1361301526       11.6199833189
H                20.2417763501        8.6288890972       14.2617987451
H                20.0244198310       10.4221393977       11.8164814870
H                20.6584445479       11.0229878907       13.3478518801
H                21.8276204492        8.5934723748       11.9400935596
H                23.6172546776       10.1202139402       11.1352810244
H                22.0403212160       10.5501359906       10.4591687135
H                22.7308622104       11.5007799929       11.7764397377
H                23.8128934724        9.1729032986       13.3770906397
H                22.8506468252       10.4170680662       14.1661487197
H                22.3926473693        8.7232502704       14.3197984762
N                16.8982268178        7.6650608054       16.9244746095
C                17.6926379454        7.5301489449       18.1311016987
C                17.8148525621        8.8659972080       18.8627598763
O                17.7347540800        8.9109933831       20.0850781805
C                19.0903755001        6.9433175047       17.8469112440
C                19.9286662911        6.9361211543       19.1266298927
C                18.9721744802        5.5259986387       17.2867429016
H                17.3514366929        7.5580877694       16.0224696427
H                17.1504803514        6.8655635905       18.8162478390
H                19.5681712843        7.5859608456       17.1011442564
H                20.9061976371        6.5110200577       18.9154234934
H                20.0693601162        7.9398259697       19.5145683969
H                19.4311895219        6.3438046836       19.8876192464
H                19.9624754187        5.0993148754       17.1584249947
H                18.4030157295        4.8968148385       17.9647484962
H                18.4717155106        5.5308855179       16.3217028473
N                18.0795775509        9.9405983395       18.1183379912
C                18.3163447067       11.2187747585       18.7631749863
C                17.0582737753       11.6739247687       19.4874602320
O                17.1187997160       12.2136945455       20.5848515635
C                18.8161483399       12.2555260963       17.7639955945
C                19.0643551627       13.6538248866       18.3631725625
C                19.9525564857       13.6113864164       19.6071899749
C                19.7130021395       14.5367044160       17.2905757404
H                18.1503296851        9.8986547594       17.1090832792
H                19.0724700056       11.0658043812       19.5448858272
H                19.7415765403       11.8747693392       17.3294448435
H                18.0801859819       12.3381496801       16.9616272346
H                18.1005300349       14.0942479541       18.6361169296
H                20.2243500688       14.6226020652       19.8986185878
H                19.4309111517       13.1501176256       20.4396999141
H                20.8605167254       13.0501560054       19.4034959147
H                19.9180078523       15.5261682529       17.6885742416
H                20.6453141583       14.0968590467       16.9461308805
H                19.0449602086       14.6414769747       16.4428484322
N                17.0122211216        9.8080193949       22.7671559005
C                17.9701188170       10.4026083707       23.6804835848
C                17.3842953461       11.6694647373       24.2974723300
O                17.3697585890       11.8395072633       25.5134629582
C                19.3036040434       10.6482134435       22.9669052140
C                20.1349065446       11.7197234102       23.6634770688
C                20.0745468540        9.3327728676       22.8965953072
H                17.2821634210        9.6625152328       21.7961837933
H                18.1259966494        9.7154443295       24.5234744943
H                19.0716200129       10.9919861750       21.9535889004
H                21.1218519613       11.7754740647       23.2138498613
H                19.6622441965       12.6950976181       23.5820973273
H                20.2464946744       11.4902740520       24.7193685716
H                20.9906159151        9.4807879203       22.3312743040
H                20.3326600844        9.0107912761       23.9020903933
H                19.4757661236        8.5757873548       22.3978054373
N                21.8325221290       17.9338409058       18.1183379912
C                22.8210718005       17.0897063246       18.7631749863
C                23.8442787375       17.9516527058       19.4874602320
O                24.2814701061       17.6293508152       20.5848515635
C                23.4690229798       16.1384880124       17.7639955945
C                24.5558818429       15.2243852034       18.3631725625
C                24.0750283881       14.4763995291       19.6071899749
C                24.9961544555       14.2212006786       17.2905757404
H                21.7608218560       17.8935395502       17.1090832792
H                22.3105329183       16.5113677959       19.5448858272
H                22.6765638553       15.5274220601       17.3294448435
H                23.9085582813       16.7345383188       16.9616272346
H                25.4192119716       15.8388707151       18.6361169296
H                24.8148700371       13.7354115571       19.8986185878
H                23.9363805643       15.1587920354       20.4396999141
H                23.1350084749       13.9706981013       19.4034959147
H                25.7505524180       13.5489286050       17.6885742416
H                24.1490811824       13.6337174707       16.9461308805
H                25.4209111183       14.7473556822       16.4428484322
N                22.2513836096       18.9244881608       22.7671559005
C                22.2873639198       17.7976299344       23.6804835848
C                23.6774054517       17.6715397591       24.2974723300
O                23.8319349774       17.5991076970       25.5134629582
C                21.8333215389       16.5199953164       22.9669052140
C                22.3456251399       15.2643112487       23.6634770688
C                20.3086451777       16.5100595455       22.8965953072
H                21.9904021592       18.7634633530       21.7961837933
H                21.6143234873       18.0062177923       24.5234744943
H                22.2470294728       16.5490130143       21.9535889004
H                21.9004339146       14.3817161185       23.2138498613
H                23.4266551562       15.1859617457       23.5820973273
H                22.0911221019       15.2823977727       24.7193685716
H                19.9787954429       15.6427129406       22.3312743040
H                19.9007443247       16.4475177266       23.9020903933
H                19.9524668585       17.4071116257       22.3978054373
N                24.6951043492       17.6323632048       23.4409985294
C                26.0412881802       17.4831079731       23.9434182935
C                26.3453704773       18.5478650356       25.0015110829
O                26.9243331546       18.2794659246       26.0482641998
C                27.0601545734       17.5353929882       22.8027166086
C                28.4719242462       17.5978208865       23.3695755625
C                26.9257837215       16.2938703097       21.9216538101
H                24.5587639271       17.7325300131       22.4398380048
H                26.1229481333       16.5190924648       24.4675786413
H                26.8542476755       18.4375761181       22.2176753307
H                29.1782042032       17.5477576869       22.5543863869
H                28.6449687389       18.5051589439       23.9458310603
H                28.6409717860       16.7583461535       24.0412744280
H                27.6203088691       16.3575956116       21.0888615215
H                27.1459640292       15.4024518405       22.4987118277
H                25.9247070489       16.2213808679       21.5109428131
N                24.8829454648       17.8543904612       28.2758070855
C                25.5901589753       16.7432309639       28.8814690117
C                26.8877319686       17.2245257381       29.5157145939
O                27.2244003315       16.8101923915       30.6185374495
C                25.8112016353       15.5804628518       27.9040946691
C                24.4882993792       14.8192370445       27.7430788203
C                26.9430270354       14.6853920693       28.4004851783
C                24.5688648774       13.6919569924       26.7247268984
H                24.7552418267       17.8764780830       27.2718935433
H                24.9825187929       16.3806616960       29.7231581756
H                26.1054938436       16.0163598597       26.9429914880
H                24.1915509128       14.4137738172       28.7112699222
H                23.7280655666       15.5341581275       27.4224243940
H                27.0741979978       13.8241130572       27.7551358804
H                27.8853669274       15.2283386557       28.4155939900
H                26.7392955467       14.3386427626       29.4100892791
H                23.5836430618       13.2639906627       26.5670215804
H                24.9322957604       14.0790314347       25.7754377598
H                25.2342674647       12.9031650343       27.0630272443
N                22.5002236030       -1.0973027112       22.3549524255
C                23.2758908974       -0.6004591111       21.2334429373
C                22.8656318387       -1.3079320514       19.9349300503
O                22.6748911615       -0.6731906207       18.9050615251
C                24.7751831382       -0.8012827242       21.4401403896
C                25.4521353411        0.2903376166       22.2645937048
S                26.0225580998        1.7204782440       21.2649722719
C                24.5292654442        2.7365051238       21.1669563959
H                22.9706151206       -1.5360889156       23.1401605724
H                23.0335587642        0.4573304457       21.0815140154
H                24.9024267866       -1.7731492794       21.9205692785
H                25.2570156443       -0.8439503788       20.4623134288
H                24.8177245392        0.6568236966       23.0695699453
H                26.3756556934       -0.0919033945       22.6945787830
H                24.8545719172        3.7475969858       20.9429286251
H                23.8712204507        2.3760285973       20.3810614384
H                24.0530731114        2.7153647021       22.1408947447
N                19.7970030183        0.1194396756       18.6918519835
C                20.0139495833        1.4171912847       18.0935261580
C                20.7096862942        1.3382562990       16.7312113883
O                20.6905129329        2.3082718586       15.9739178528
C                20.8404317567        2.2936005554       19.0276348259
C                19.9894130511        2.8048374443       20.1894201721
C                20.8409672887        3.5987748069       21.1917770012
N                21.0363122181        2.9563646531       22.4802616338
C                20.3302401319        3.2714793243       23.5732272073
N                19.1750964727        3.9102461279       23.4532157017
N                20.7693105731        2.9172824029       24.7845618983
H                20.2100722258       -0.0812806095       19.5969831408
H                19.0346368866        1.8815987571       17.9013816753
H                21.6715033049        1.6836580712       19.3841742304
H                21.2290206259        3.1368150850       18.4558697855
H                19.1956579888        3.4299400276       19.7806525111
H                19.5080749920        1.9595177082       20.6853076265
H                21.8288406690        3.7561127737       20.7542362977
H                20.4046351652        4.5829277744       21.3690872072
H                21.7599848637        2.2601261487       22.5627959789
H                18.7450094556        4.0100031073       22.5491641709
H                18.8211836490        4.4999501877       24.2047321193
H                21.7362152982        2.6585490970       24.9692078670
H                20.2714773679        3.2525731372       25.5946381806
N                21.3690901140        0.2198218286       16.4468458701
C                22.0134579465        0.0005175307       15.1778442543
C                21.1487398630       -0.8136412020       14.2102414423
O                21.5841003200       -1.1638647176       13.1237765532
C                23.3952748172       -0.6347969853       15.3625132035
C                24.3140029231        0.2928238403       16.1528070795
C                25.7668441206       -0.1805199266       16.2254410536
C                26.5730743270        0.8607700236       17.0042773413
N                28.0230379090        0.5862490513       17.0485591989
H                21.3880966158       -0.5344531745       17.1202947657
H                22.1248500208        0.9897931848       14.7118554434
H                23.2632739719       -1.5758283814       15.8979188888
H                23.7962457450       -0.8409231494       14.3701946018
H                24.2919125351        1.2790250238       15.6856840066
H                23.9116295759        0.3883441612       17.1619225962
H                25.8125249229       -1.1496328800       16.7219314413
H                26.1626570414       -0.2796193588       15.2144951645
H                26.4354093821        1.8446721159       16.5541176272
H                26.2155001817        0.9106080926       18.0342815470
H                28.4834000906        1.3659974908       17.7366773306
H                28.2034389006       -0.3387459143       17.4444790632
H                28.4435153646        0.6589970915       16.1206759956
N                34.5250611248       17.0849876949       18.6918519835
C                33.2927019811       16.6239931269       18.0935261580
C                33.0131933285       17.2659862857       16.7312113883
O                32.1827218924       16.7643738879       15.9739178528
C                32.1204682018       16.9015430494       19.0276348259
C                32.1032334215       15.9089207869       20.1894201721
C                30.9898863776       16.2494197080       21.1917770012
N                31.4485574258       16.7397984562       22.4802616338
C                31.5286961585       15.9707647572       23.5732272073
N                31.5530797091       14.6509976015       23.4532157017
N                31.6159044698       16.5281093740       24.7845618983
H                34.4923553870       17.5430762646       19.5969831408
H                33.3801696606       15.5436797171       17.9013816753
H                32.2331581139       17.9262433647       19.3841742304
H                31.1959285637       16.8164636170       18.4558697855
H                31.9587562355       14.9089574468       19.7806525111
H                33.0759708167       15.9147296679       20.6853076265
H                30.3596910113       17.0262741677       20.7542362977
H                30.3557509683       15.3794685209       21.3690872072
H                31.6896813349       17.7146366035       22.5627959789
H                31.6817311393       14.2286528291       22.5491641709
H                31.2193374244       14.0496480755       24.2047321193
H                31.3565217229       17.4948400818       24.9692078670
H                31.5744507788       15.9293278042       25.5946381806
H                30.3969817957       10.8479620341       10.7749806318
H                25.7255868867        4.5084695238       30.7326513036
H                19.2805131218        7.3232079550       12.9007251270
H                17.7805179457       10.2482168177       13.6802766609
H                16.2455024312        7.0454236264       16.9236736049
H                16.1614351563       11.5340722139       19.0677916076
H                16.7831268361        8.9894987237       23.0630270199
H                17.0020212516       12.3817026204       23.7087587201
H                21.0120557857       17.7200409255       18.4202064191
H                24.1715821818       18.7982640104       19.0677916076
H                21.6570710576       19.5321499675       23.0630270199
H                26.0696989234       19.4970001784       24.8493674831
H                24.0466666152       17.8940956220       28.6060512163
H                27.4674730741       17.8803171248       29.0321467002
H                22.0413913920       -0.4183785618       22.7271553292
H                22.7504042291       -2.3011815627       19.9215881503
H                18.9149174540       -0.0118182306       18.8130807723
H                20.2149522688       -1.0651619573       14.4647567436
H                35.0797765882       16.3867081409       18.8130807723
H                33.5053807133       18.0923096301       16.4574572857
