 283 
 
N                20.7793418897       15.2638569720       14.9226030612
C                20.9160058573       14.8004664029       16.3220582508
C                21.7346344640       15.7524510166       17.1512417283
O                21.4716496072       15.9750640898       18.3410254281
C                21.4840762315       13.3462915884       16.3762886381
C                20.4480384930       12.4460789331       15.7280115497
C                20.9791536138       11.0207619912       15.6114184583
O                22.2101777714       10.8925792927       15.4650513784
O                20.1481866446       10.0886809225       15.5713016736
H                21.1677506414       14.7182484357       14.1636548186
H                19.9114283913       14.7894416194       16.7663702842
H                22.4274043533       13.3026074457       15.8357093753
H                21.6568161122       13.0603761322       17.4123653146
H                19.5179461064       12.4481332666       16.2989031852
H                20.2361398552       12.7811432882       14.7111549683
N                19.7357484017       19.0386788020       18.0432012677
C                18.7755857046       18.8051047888       19.1299172800
C                19.4151280862       17.9632334464       20.2526466300
O                18.7231845692       17.3304535551       21.0555224692
C                17.5088438259       18.1023315978       18.6038919255
C                16.6708421808       18.9495383781       17.6950913433
C                16.0434269394       20.0845977091       18.1957437329
C                16.5858646941       18.6873312314       16.3313819816
C                15.2935643069       20.9296187199       17.3997486949
C                15.7024250198       19.4343934846       15.5593693382
C                15.0554894957       20.5531387604       16.0788146933
O                14.2582688708       21.3629994117       15.3462332576
H                19.8368721781       18.3035305778       17.3544608130
H                18.5295820264       19.7841027077       19.5556632755
H                17.8206474017       17.1944287462       18.0814641317
H                16.9297891071       17.8075140251       19.4817231774
H                16.1781600821       20.3351233090       19.2376391497
H                17.1299068959       17.8620317310       15.8999760858
H                14.8637717135       21.8278472126       17.8072535469
H                15.5941499740       19.1852258334       14.5144622914
H                14.0860994480       20.9850685565       14.4696702152
N                20.7339298634       18.1020121114       20.3999725481
C                21.4481090303       17.3341173413       21.3971709708
C                20.8267058696       17.5484305128       22.8017313426
O                20.7957666386       16.6053585271       23.5877127952
C                22.9011169922       17.7365375817       21.4866160067
H                21.3057101809       18.5974610897       19.7259498660
H                21.3474756702       16.2627073737       21.1823740624
H                23.4257101003       17.0509030513       22.1456672596
H                23.3601058545       17.7045415541       20.5026204155
H                22.9881828517       18.7446669529       21.8847617746
N                17.9482776963       17.7731896756       23.6557567860
C                16.6935440114       17.0209696457       23.7747259302
C                16.8660638783       15.5219212680       23.5418787788
O                15.8893728025       14.7767087517       23.4038870019
C                15.6721166983       17.5393467533       22.7755084143
C                15.4196631287       19.0500973830       22.8822991836
C                14.4105109740       19.4543773623       21.8054041870
C                14.9261068866       19.4380266369       24.2753921102
H                18.3575593544       17.7864942083       22.7282283902
H                16.3586209990       17.1563159194       24.8092338726
H                16.0499099918       17.3119013111       21.7760174255
H                14.7436549591       16.9859735233       22.9224574552
H                16.3632126854       19.5671728425       22.6868545426
H                14.3201362932       20.5363548056       21.7621966601
H                14.7331755963       19.1029384921       20.8292695619
H                13.4360298401       19.0283027767       22.0252206111
H                14.6593424419       20.4907654021       24.2820958088
H                14.0557655389       18.8445206696       24.5400324183
H                15.7062071244       19.2777032130       25.0152227544
N                18.1125062170       15.0288540083       23.5192683668
C                18.3025057717       13.6570069674       23.1312423977
C                17.7313216212       12.6308149990       24.1033838372
O                17.4769241531       11.4992849349       23.7106504362
C                19.7890359780       13.3144577976       22.9466876398
O                20.3901544162       13.4435005762       24.1951944312
H                18.9363324328       15.6014897272       23.6470028938
H                17.7862432143       13.4707290943       22.1780229766
H                19.8585768266       12.2846226483       22.5623507628
H                20.2272982366       13.9959826283       22.2031984838
H                21.3168063950       13.7440750847       24.1323399386
N                14.6876368637       13.0459219287       25.4866564332
C                13.2445508072       13.0764316798       25.4902629076
C                12.5705057991       11.9402786987       24.6916035413
O                13.0564865354       11.4864083953       23.6530786720
C                12.7332177959       14.3678975179       24.8259586326
C                13.2052220849       15.6260698821       25.5428057286
C                12.5963443624       15.7727430356       26.9280983470
C                12.9759641065       17.1177164002       27.5265571102
N                12.5554373235       17.2091442652       28.9454481681
H                15.1800748563       13.5525938114       24.7567677457
H                12.9406479624       12.9990107976       26.5361278695
H                13.1077519821       14.3784037832       23.8004590481
H                11.6442994170       14.3513291539       24.7941898942
H                14.2932034912       15.6121974123       25.6099130931
H                12.9178462863       16.4787007572       24.9263508352
H                11.5119222454       15.6838244176       26.8561319981
H                12.9720576730       14.9738175260       27.5683767033
H                14.0594251171       17.2433523323       27.4890522618
H                12.5061939896       17.9276978222       26.9695608193
H                12.9303834548       18.1198932983       29.3576564013
H                11.5360467860       17.1834541202       29.0684901424
H                12.9622995011       16.4405274239       29.4883353927
N                11.3206336977       11.6094379505       25.0403285755
C                10.6669333514       10.5068133990       24.3379042409
C                10.4118482290       10.8039430949       22.8606471912
O                10.3657315657        9.9032190461       22.0281907464
C                 9.3293003007       10.3041037491       25.0582079038
C                 9.6113954495       10.8697812258       26.4502127486
C                10.5368546290       12.0496973606       26.1844677356
H                11.2946346904        9.6109275270       24.3917662474
H                 8.5459905255       10.8792099392       24.5629728171
H                 9.0334757080        9.2597261105       25.0744908733
H                 8.6998502235       11.1658614212       26.9635842340
H                10.1249098636       10.1212128010       27.0529762519
H                 9.9661190633       12.9449733246       25.9184732547
H                11.1665622137       12.2623903988       27.0451222923
N                10.1788007061       12.0826642099       22.5627333995
C                 9.8780798859       12.5103754723       21.2215893590
C                11.1292338181       12.6886820053       20.3340746017
O                10.9818865441       13.1517195486       19.2049310062
C                 9.0827405021       13.8161534925       21.2641571594
C                 9.7727733712       14.9760311697       21.9052785894
C                10.7189823428       15.7135197655       21.1997709309
C                 9.4536710865       15.3689407701       23.1991843124
C                11.3047177376       16.8289526200       21.7592498849
C                10.0654095577       16.4811621500       23.7646554434
C                10.9894202284       17.2119790472       23.0542703235
H                10.3086083632       12.8055404568       23.2561076688
H                 9.2706765422       11.7390635022       20.7357895484
H                 8.8454636697       14.0754729632       20.2294325967
H                 8.1410300028       13.6180120735       21.7813815089
H                10.9677346052       15.4268138118       20.1894205773
H                 8.7019746909       14.8274381748       23.7549051109
H                12.0231233845       17.3943462944       21.1842617385
H                 9.7894581965       16.7807720496       24.7640031671
H                11.4424931657       18.0934294892       23.4813323154
N                12.3314117260       12.4327960159       20.8354237616
C                13.5227036586       12.8024780669       20.0884732760
C                13.6201081316       12.0535633178       18.7684972231
O                13.9088285290       12.6680499932       17.7392447503
C                14.7704106792       12.5235913443       20.9194507295
C                16.0655584473       12.8111189094       20.2062464012
C                16.4828122600       14.1261323458       20.0033802686
C                16.9275259664       11.7919885889       19.8501715448
C                17.7809197355       14.3707354033       19.6011811838
C                18.1616252650       12.0424386133       19.2884390533
C                18.6163704409       13.3537185874       19.2078009476
H                12.4789362684       12.0271622999       21.7552130091
H                13.4599375385       13.8684210281       19.8308270265
H                14.7369511596       13.1385011584       21.8230873897
H                14.7559710301       11.4753873374       21.2197372051
H                15.8379410129       14.9476946553       20.2784119786
H                16.6202179577       10.7684665708       20.0039508675
H                18.1328446380       15.3918431282       19.5613324315
H                18.8060674184       11.2316070855       18.9873317654
H                19.6188628214       13.5596528323       18.8657226964
N                13.4345564399       10.7117183362       18.7984109314
C                13.5703795786        9.9588887820       17.5604661060
C                12.6289273919       10.4678171306       16.5042274774
O                12.9585017906       10.5234269204       15.3028725966
C                13.2903404621        8.4730273425       17.8017005561
C                14.5072348037        7.7910163632       18.4173110844
C                15.5383516517        7.3910804071       17.3527995982
C                16.9686484877        7.4550431238       17.8957317557
N                17.9330982117        7.2926940869       16.7748661305
H                13.2740486489       10.2347128889       19.6807631481
H                14.5904697228       10.0951660413       17.1754610249
H                12.4344620362        8.3990991493       18.4713458710
H                13.0296510076        7.9899017797       16.8603021442
H                14.9605618163        8.4732647492       19.1346267174
H                14.1853051526        6.9061756182       18.9651760627
H                15.3197893739        6.3843137779       16.9980070199
H                15.4655567878        8.0726522787       16.5055938018
H                17.1444698742        8.4418372869       18.3236962645
H                17.1357493828        6.6860082737       18.6482201327
H                18.8977082751        7.2083172758       17.1025180842
H                17.6969351248        6.4855863243       16.1910533187
H                17.8368717836        8.2219696664       16.2466201384
N                11.3812881110       10.7097764670       16.9192150495
C                10.3901812295       11.1672774792       15.9671456511
C                10.6462446563       12.5729516780       15.4533154754
O                10.3362418330       12.9297344442       14.3064537138
H                11.0963364654       10.5446856081       17.8835746232
H                10.3588102654       10.4989030914       15.0988700734
H                 9.4135954221       11.1519879597       16.4542102873
N                11.2389898766       13.4047764072       16.3057679436
C                11.5303776845       14.7655948361       15.9054573123
C                12.6259487892       14.7014323209       14.8303166937
O                12.5879480346       15.3702545495       13.8002765605
C                11.9903658484       15.5563987860       17.1554107239
C                12.7840508589       16.8511731120       16.8982892028
C                11.9692440304       17.9119100159       16.1736875431
C                13.2452775030       17.4308180848       18.2183100666
H                11.3389314165       13.1443510162       17.2816051909
H                10.6469992978       15.2215293764       15.4438444212
H                11.1050839551       15.7839463133       17.7500544306
H                12.6264444985       14.8847048616       17.7345086796
H                13.6600408332       16.6052116340       16.2879560849
H                12.5359586457       18.8363684022       16.1020554576
H                11.7199369155       17.5893843716       15.1656553443
H                11.0447902363       18.1185529917       16.7086138881
H                13.8429284194       18.3235525592       18.0518066707
H                12.3857648475       17.7039981119       18.8263188056
H                13.8500074690       16.7159118168       18.7739983042
N                13.6343304231       13.8789791643       15.0958635294
C                14.7357261208       13.7677429876       14.1654909383
C                14.2083929881       13.2246142047       12.8353191404
O                14.5722387277       13.6507402318       11.7477334715
C                15.8451293851       12.8880737602       14.7415948062
C                16.8651861067       12.4599543810       13.6626131664
C                16.5243341367       13.6312203184       15.8857111527
H                13.6701624350       13.3843385425       15.9815775636
H                15.1356373486       14.7674329085       13.9471727581
H                15.3781567210       11.9863177979       15.1482325681
H                17.6832639891       11.9194431435       14.1291260647
H                16.4027597648       11.8251271560       12.9132560576
H                17.2761061946       13.3344791401       13.1624084204
H                17.2770236505       12.9998314366       16.3504945117
H                17.0165813287       14.5339739361       15.5286499440
H                15.8066772724       13.9012082425       16.6548182990
N                13.3106057525       12.2169416882       12.9166808179
C                12.8254969431       11.6378767301       11.6593033796
C                12.0484853841       12.6451713436       10.8432432237
O                12.1094803441       12.6725812490        9.6091283618
C                11.8531223470       10.4464356854       11.8743409428
O                12.5053434336        9.3975326825       12.5099807767
H                13.0935774254       11.7500095775       13.7922070930
H                13.6769105896       11.2969801012       11.0590244190
H                10.9666452059       10.7854786969       12.4209517275
H                11.5376023567       10.0912061703       10.8914711688
H                12.6237802819        9.6230032034       13.4493669814
N                11.2116200277       13.4423327957       11.5337040072
C                10.4793341710       14.5079352038       10.8546028160
C                11.4466215859       15.5191580315       10.2383547330
O                11.2433530192       15.9719005687        9.1159639470
C                 9.4941337858       15.2590614043       11.7914051800
C                 9.3159870516       16.7582664921       11.6579913159
C                 8.6284432511       17.3632604154       10.5671143359
C                 9.6980765978       17.5960067648       12.6943714608
C                 8.3862583467       18.7162423973       10.5386918505
C                 9.4374363340       18.9467092761       12.6866752806
C                 8.7575671364       19.5534298126       11.6244121287
O                 8.4788468096       20.8974079001       11.7716286856
H                11.1358362006       13.3451274360       12.5393352637
H                 9.9304777540       14.0519498900       10.0222034629
H                 8.5152758421       14.7914229665       11.6660394117
H                 9.8292560842       15.0626336066       12.8119272335
H                 8.3164140657       16.7530119878        9.7331983828
H                10.2139322180       17.1724247736       13.5429488084
H                 7.8754938033       19.1605146813        9.6940145932
H                 9.7240295473       19.5618487762       13.5217562263
H                 8.1937479800       21.2913721292       10.9133193490
O                15.5379537335        9.7347980718       23.3172381582
H                16.3761580995       10.2112884597       23.3241322500
H                14.8798077864       10.3881329143       23.5869847480
O                 8.3998578531       11.8245463166       12.7793976285
H                 9.0798895996       12.2927999699       13.2918847230
H                 7.5660735774       11.9441364951       13.2413472329
O                10.0711691883        9.8080311593       19.2416877040
H                10.2389283637        9.7565315782       20.1985674785
H                 9.5813878573        9.0133157863       19.0150097118
O                22.5104542281       14.0703928277       19.9923477690
H                22.7066735198       14.1697002933       20.9428745227
H                22.0343225828       14.8500219979       19.6733996808
O                13.3991880166        9.3396948677       21.3606166898
H                14.1304697400        9.3072674956       21.9968400740
H                12.5856252740        9.2448998676       21.8614330950
O                17.5608448475        9.8113311004       16.2045111984
H                18.4661263560       10.0921241043       15.9558831417
H                16.9744507467        9.9710074276       15.4525815272
O                21.9022843978       11.4161256138       19.8499426650
H                22.0946183828       12.3688321960       19.9313406724
H                21.5124403100       11.1484272018       20.6844081866
O                 7.2311649919       18.4238367035       20.0167638106
H                 7.8874025370       19.0337826247       19.6589259329
H                 7.2403094130       18.5509040227       20.9681353673
O                19.0654581486        9.6621696344       21.7954139655
H                19.7327967125        9.6408258878       22.4973064790
H                18.5608777427        8.8490732867       21.8900576185
H                19.9068548444       15.3327539375       14.7127946630
H                22.5156793355       16.2258321786       16.7439590447
H                19.4936268649       19.7718686830       17.5808055931
H                20.4595217124       18.4435033267       23.0547539748
H                17.8066995313       18.6318481821       23.8852370516
H                17.5661184461       12.8831448076       25.0568184593
H                14.9973991887       13.3932347980       26.2569947179
H                12.2523739521       15.8165678042       10.7505173550
