 558 
 
N                 3.0720000000       88.3690000000       10.1830000000
C                 1.9850000000       87.5990000000       10.7560000000
C                 0.8830000000       88.4950000000       11.2720000000
O                -0.1700000000       88.5890000000       10.6580000000
C                 2.4710000000       86.6190000000       11.8520000000
C                 3.6820000000       87.1840000000       12.6030000000
C                 2.8290000000       85.2920000000       11.2290000000
C                 4.0610000000       86.4010000000       13.8620000000
H                 3.9870000000       88.1150000000       10.5560000000
H                 1.5590000000       87.0110000000        9.9430000000
H                 1.6600000000       86.4830000000       12.5670000000
H                 4.5430000000       87.1720000000       11.9350000000
H                 3.4580000000       88.2070000000       12.9050000000
H                 3.1690000000       84.6130000000       12.0110000000
H                 1.9470000000       84.8810000000       10.7380000000
H                 3.6230000000       85.4460000000       10.4990000000
H                 4.9270000000       86.8730000000       14.3260000000
H                 3.2180000000       86.4100000000       14.5530000000
H                 4.3020000000       85.3750000000       13.5830000000
N                 1.1440000000       89.1830000000       12.3760000000
C                 0.1210000000       89.9840000000       13.0220000000
C                -0.6240000000       90.8100000000       12.0000000000
O                -1.8420000000       90.9410000000       12.0720000000
C                 0.7280000000       90.9000000000       14.0760000000
C                 1.0870000000       90.2160000000       15.3830000000
C                 1.5770000000       91.2440000000       16.4060000000
N                 2.2770000000       90.6310000000       17.5380000000
C                 2.9320000000       91.3070000000       18.4820000000
N                 2.9890000000       92.6400000000       18.4530000000
N                 3.5340000000       90.6460000000       19.4630000000
H                 2.0500000000       89.2060000000       12.8450000000
H                -0.5740000000       89.3140000000       13.5280000000
H                 1.6420000000       91.3350000000       13.6720000000
H                 0.0100000000       91.6880000000       14.3050000000
H                 0.2070000000       89.7150000000       15.7870000000
H                 1.8820000000       89.4910000000       15.2100000000
H                 2.2670000000       91.9310000000       15.9160000000
H                 0.7200000000       91.7920000000       16.7970000000
H                 2.2620000000       89.6140000000       17.6090000000
H                 2.5280000000       93.1540000000       17.7020000000
H                 3.4940000000       93.1450000000       19.1820000000
H                 3.4940000000       89.6270000000       19.4910000000
H                 4.0370000000       91.1570000000       20.1890000000
N                -0.8950000000       90.1220000000        8.9250000000
C                -1.6560000000       89.2270000000        8.1090000000
C                -2.9520000000       88.8930000000        8.8190000000
O                -4.0060000000       89.3810000000        8.4080000000
C                -0.8500000000       87.9810000000        7.7570000000
C                -1.3160000000       87.2240000000        6.5020000000
C                -2.4450000000       87.9280000000        5.7110000000
C                -0.1300000000       86.9690000000        5.5840000000
H                -0.0160000000       89.7480000000        9.2840000000
H                -1.9010000000       89.6960000000        7.1560000000
H                 0.1850000000       88.2790000000        7.5910000000
H                -0.9090000000       87.2870000000        8.5960000000
H                -1.7430000000       86.2830000000        6.8500000000
H                -2.7050000000       87.3190000000        4.8450000000
H                -3.3140000000       88.0420000000        6.3590000000
H                -2.0930000000       88.9070000000        5.3850000000
H                -0.4750000000       86.4330000000        4.7000000000
H                 0.3060000000       87.9250000000        5.2930000000
H                 0.6090000000       86.3710000000        6.1170000000
N                -2.8550000000       88.0890000000        9.8860000000
C                -4.0010000000       87.6340000000       10.6830000000
C                -5.0960000000       88.6450000000       10.5690000000
O                -6.2490000000       88.2860000000       10.3610000000
C                -3.6270000000       87.4810000000       12.1520000000
C                -2.4200000000       86.6410000000       12.3520000000
C                -2.0840000000       86.4590000000       13.8030000000
N                -0.9640000000       85.5280000000       13.9150000000
C                -0.7470000000       84.7020000000       14.9380000000
N                -1.5760000000       84.6500000000       15.9800000000
N                 0.3080000000       83.9050000000       14.9130000000
H                -1.9680000000       87.7240000000       10.2340000000
H                -4.3310000000       86.6620000000       10.3170000000
H                -3.4260000000       88.4670000000       12.5710000000
H                -4.4560000000       87.0120000000       12.6820000000
H                -2.5950000000       85.6560000000       11.9190000000
H                -1.5690000000       87.1170000000       11.8650000000
H                -1.7970000000       87.4150000000       14.2410000000
H                -2.9420000000       86.0480000000       14.3350000000
H                -0.2930000000       85.5090000000       13.1470000000
H                -2.3990000000       85.2510000000       16.0070000000
H                -1.3870000000       84.0090000000       16.7500000000
H                 0.9450000000       83.9270000000       14.1170000000
H                 0.4850000000       83.2680000000       15.6900000000
N                -4.7020000000       89.9150000000       10.6880000000
C                -5.5950000000       91.0540000000       10.5620000000
C                -6.2510000000       91.0420000000        9.2030000000
O                -7.4120000000       90.6690000000        9.0640000000
C                -4.8290000000       92.3490000000       10.7740000000
H                -3.7380000000       90.1900000000       10.8780000000
H                -6.3740000000       91.0000000000       11.3230000000
H                -5.5170000000       93.1890000000       10.6760000000
H                -4.3910000000       92.3430000000       11.7720000000
H                -4.0430000000       92.4230000000       10.0230000000
N                -6.6010000000       89.2100000000        7.3290000000
C                -7.1580000000       87.9000000000        7.0630000000
C                -8.5930000000       87.8710000000        7.4960000000
O                -9.4600000000       87.4020000000        6.7640000000
C                -6.3710000000       86.8370000000        7.7810000000
H                -6.0540000000       89.2580000000        8.1890000000
H                -7.0940000000       87.6830000000        5.9970000000
H                -6.8100000000       85.8630000000        7.5640000000
H                -5.3380000000       86.8650000000        7.4340000000
H                -6.4080000000       87.0310000000        8.8530000000
N                -8.8320000000       88.3840000000        8.6960000000
C               -10.1700000000       88.4890000000        9.2430000000
C               -11.0870000000       88.9930000000        8.1490000000
O               -12.2980000000       88.8240000000        8.2040000000
C               -10.1970000000       89.4740000000       10.4200000000
C                -9.5360000000       89.0090000000       11.7160000000
C               -10.2490000000       87.8080000000       12.2730000000
N               -10.6250000000       87.9750000000       13.6790000000
C               -10.2590000000       87.1640000000       14.6780000000
N                -9.4800000000       86.1060000000       14.4430000000
N               -10.6770000000       87.4100000000       15.9250000000
H                -8.1070000000       88.7400000000        9.3200000000
H               -10.5050000000       87.5190000000        9.6110000000
H                -9.6850000000       90.3850000000       10.1100000000
H               -11.2390000000       89.6930000000       10.6540000000
H                -8.4990000000       88.7360000000       11.5190000000
H                -9.5770000000       89.8100000000       12.4540000000
H               -11.1590000000       87.6370000000       11.6990000000
H                -9.5940000000       86.9400000000       12.2000000000
H               -11.2130000000       88.7740000000       13.9150000000
H                -9.1580000000       85.9100000000       13.4950000000
H                -9.2060000000       85.4930000000       15.2110000000
H               -11.2740000000       88.2150000000       16.1130000000
H               -10.3990000000       86.7920000000       16.6870000000
N               -11.5550000000       88.1300000000        5.0110000000
C               -12.1840000000       87.2540000000        4.0470000000
C               -12.5220000000       85.9020000000        4.6290000000
O               -11.9200000000       85.4640000000        5.6060000000
C               -11.2890000000       87.1060000000        2.8240000000
O               -12.0060000000       86.4870000000        1.7830000000
H               -10.7110000000       87.7610000000        5.4480000000
H               -13.1400000000       87.6840000000        3.7500000000
H               -10.9600000000       88.0920000000        2.4970000000
H               -10.4260000000       86.4920000000        3.0820000000
H               -12.0440000000       87.0800000000        1.0040000000
N               -13.5010000000       85.2510000000        4.0210000000
C               -13.8780000000       83.9110000000        4.4070000000
C               -12.7540000000       82.9890000000        4.0680000000
O               -12.1600000000       83.0990000000        3.0020000000
C               -15.0200000000       83.4020000000        3.5660000000
O               -14.7930000000       83.8000000000        2.2050000000
C               -16.3490000000       83.9320000000        4.0810000000
H               -14.0540000000       85.6300000000        3.2520000000
H               -14.1420000000       83.9230000000        5.4650000000
H               -15.0810000000       82.3150000000        3.6140000000
H               -13.8350000000       83.9340000000        2.0500000000
H               -17.1650000000       83.5560000000        3.4640000000
H               -16.5060000000       83.6090000000        5.1100000000
H               -16.3540000000       85.0210000000        4.0480000000
N               -12.4880000000       82.0600000000        4.9700000000
C               -11.6140000000       80.9460000000        4.6830000000
C               -11.6320000000       80.6530000000        3.2040000000
O               -10.6180000000       80.8010000000        2.5350000000
C               -12.0940000000       79.6910000000        5.4100000000
C               -11.1500000000       78.4850000000        5.2840000000
C               -10.3440000000       78.2960000000        6.5890000000
C               -11.9060000000       77.2120000000        4.9200000000
H               -12.8680000000       82.0540000000        5.9170000000
H               -10.6050000000       81.1960000000        5.0120000000
H               -12.1960000000       79.9220000000        6.4700000000
H               -13.0600000000       79.3990000000        4.9980000000
H               -10.4490000000       78.6790000000        4.4720000000
H                -9.6830000000       77.4370000000        6.4760000000
H                -9.7570000000       79.1950000000        6.7770000000
H               -11.0370000000       78.1260000000        7.4130000000
H               -11.1970000000       76.3880000000        4.8420000000
H               -12.6390000000       77.0000000000        5.6980000000
H               -12.4100000000       77.3600000000        3.9650000000
N                -9.1240000000       82.4930000000        1.3060000000
C                -7.7850000000       82.2920000000        1.8110000000
C                -7.3390000000       80.9080000000        1.4200000000
O                -6.3770000000       80.7550000000        0.6740000000
C                -7.7540000000       82.4730000000        3.3260000000
C                -8.7130000000       83.5270000000        3.8960000000
C                -8.5190000000       83.7710000000        5.3830000000
C                -8.5770000000       84.8320000000        3.1550000000
H                -9.7490000000       82.9110000000        1.9950000000
H                -7.1040000000       83.0350000000        1.3970000000
H                -8.0110000000       81.5200000000        3.7880000000
H                -6.7440000000       82.7660000000        3.6130000000
H                -9.7200000000       83.1320000000        3.7630000000
H                -9.2310000000       84.5270000000        5.7140000000
H                -8.6900000000       82.8390000000        5.9210000000
H                -7.5000000000       84.1180000000        5.5560000000
H                -9.2700000000       85.5570000000        3.5830000000
H                -7.5530000000       85.1920000000        3.2560000000
H                -8.8120000000       84.6690000000        2.1030000000
N                 4.9660000000       80.0250000000        4.3530000000
C                 5.0330000000       79.5040000000        5.7090000000
C                 4.0040000000       80.2840000000        6.4650000000
O                 2.9840000000       79.7560000000        6.8960000000
C                 6.3870000000       79.7860000000        6.3650000000
C                 7.5960000000       79.0380000000        5.8290000000
C                 8.6710000000       78.8220000000        6.9250000000
O                 8.2840000000       78.5100000000        8.0740000000
O                 9.9010000000       78.9470000000        6.6650000000
H                 5.8640000000       80.0410000000        3.8700000000
H                 4.8840000000       78.4240000000        5.7200000000
H                 6.5990000000       80.8490000000        6.2500000000
H                 6.3050000000       79.5340000000        7.4220000000
H                 7.2810000000       78.0610000000        5.4620000000
H                 8.0450000000       79.6130000000        5.0190000000
N                 4.2810000000       81.5790000000        6.5590000000
C                 3.4760000000       82.5300000000        7.3010000000
C                 2.0030000000       82.2690000000        7.0230000000
O                 1.2540000000       81.7910000000        7.8770000000
C                 3.8710000000       83.9760000000        6.9260000000
C                 5.3330000000       84.3900000000        7.2200000000
C                 5.4970000000       85.2800000000        8.4490000000
C                 6.9760000000       85.5860000000        8.6720000000
N                 7.2280000000       86.5020000000        9.8310000000
H                 5.0890000000       82.0140000000        6.1140000000
H                 3.6480000000       82.4200000000        8.3720000000
H                 3.7120000000       84.1040000000        5.8550000000
H                 3.2280000000       84.6580000000        7.4820000000
H                 5.9250000000       83.4890000000        7.3840000000
H                 5.7200000000       84.9390000000        6.3620000000
H                 4.9640000000       86.2190000000        8.2980000000
H                 5.1080000000       84.7680000000        9.3290000000
H                 7.5040000000       84.6520000000        8.8640000000
H                 7.3760000000       86.0630000000        7.7770000000
H                 8.2310000000       86.4620000000       10.1040000000
H                 6.9870000000       87.4800000000        9.5710000000
H                 6.6450000000       86.2160000000       10.6440000000
N                 1.5950000000       82.5420000000        5.8040000000
C                 0.2170000000       82.3570000000        5.4790000000
C                -0.2570000000       80.9880000000        5.8830000000
O                -1.1430000000       80.8420000000        6.6950000000
C                 0.0140000000       82.5220000000        4.0030000000
C                -1.3960000000       82.1870000000        3.6040000000
C                -1.8730000000       83.0950000000        2.4810000000
C                -1.3250000000       80.7510000000        3.1880000000
H                 2.1840000000       82.8830000000        5.0450000000
H                -0.3610000000       83.1120000000        6.0120000000
H                 0.2140000000       83.5570000000        3.7250000000
H                 0.6910000000       81.8550000000        3.4700000000
H                -2.1230000000       82.3340000000        4.4030000000
H                -2.8960000000       82.8250000000        2.2170000000
H                -1.8380000000       84.1300000000        2.8220000000
H                -1.2200000000       82.9660000000        1.6180000000
H                -2.3170000000       80.4210000000        2.8800000000
H                -0.6270000000       80.6570000000        2.3560000000
H                -0.9800000000       80.1540000000        4.0320000000
N                 0.3220000000       79.9650000000        5.3170000000
C                -0.2790000000       78.7120000000        5.5270000000
C                -0.5800000000       78.4900000000        6.9840000000
O                -1.5270000000       77.8000000000        7.2880000000
C                 0.5490000000       77.5960000000        4.9310000000
C                 1.9700000000       77.4640000000        5.4190000000
C                 2.7000000000       76.4110000000        4.6360000000
O                 2.2290000000       76.1110000000        3.5220000000
O                 3.7180000000       75.8770000000        5.1250000000
H                 1.1630000000       79.9850000000        4.7400000000
H                -1.2290000000       78.6790000000        4.9930000000
H                 0.0490000000       76.6520000000        5.1500000000
H                 0.5970000000       77.7510000000        3.8530000000
H                 2.4890000000       78.4140000000        5.2920000000
H                 1.9690000000       77.1770000000        6.4710000000
N                 0.1590000000       79.0890000000        7.9020000000
C                -0.2040000000       78.8390000000        9.2950000000
C                -1.5100000000       79.5250000000        9.6080000000
O                -2.3950000000       78.9690000000       10.2700000000
C                 0.8580000000       79.2950000000       10.3080000000
C                 2.1650000000       79.6290000000        9.6080000000
C                 0.3690000000       80.4760000000       11.1550000000
H                 0.9540000000       79.7060000000        7.7340000000
H                -0.2860000000       77.7560000000        9.3880000000
H                 1.0430000000       78.4670000000       10.9930000000
H                 2.8950000000       79.9480000000       10.3520000000
H                 2.5270000000       78.7410000000        9.0890000000
H                 1.9890000000       80.4320000000        8.8920000000
H                 1.1550000000       80.7600000000       11.8550000000
H                 0.1370000000       81.3130000000       10.4960000000
H                -0.5250000000       80.1750000000       11.7020000000
N                -1.6060000000       80.7430000000        9.0940000000
C                -2.7090000000       81.6340000000        9.3570000000
C                -4.0090000000       81.0010000000        8.9770000000
O                -5.0080000000       81.1670000000        9.6600000000
C                -2.5260000000       82.9110000000        8.5780000000
C                -3.6020000000       83.0500000000        7.5110000000
C                -2.4700000000       84.0810000000        9.5370000000
H                -0.9090000000       81.1510000000        8.4710000000
H                -2.7200000000       81.8470000000       10.4260000000
H                -1.5800000000       82.8980000000        8.0370000000
H                -3.4430000000       83.9810000000        6.9660000000
H                -3.5360000000       82.2030000000        6.8280000000
H                -4.5800000000       83.0640000000        7.9930000000
H                -2.3370000000       85.0010000000        8.9670000000
H                -3.4030000000       84.1240000000       10.1000000000
H                -1.6310000000       83.9420000000       10.2180000000
N                -3.9780000000       80.2580000000        7.8900000000
C                -5.1250000000       79.5360000000        7.4730000000
C                -5.5230000000       78.4960000000        8.5020000000
O                -6.7020000000       78.3530000000        8.8190000000
C                -4.8540000000       78.8820000000        6.1840000000
C                -6.1720000000       78.5670000000        5.4760000000
C                -3.9880000000       79.7940000000        5.3630000000
H                -3.1650000000       80.1450000000        7.2850000000
H                -5.9450000000       80.2460000000        7.3660000000
H                -4.3300000000       77.9370000000        6.3260000000
H                -5.9560000000       78.0830000000        4.5230000000
H                -6.7630000000       77.9020000000        6.1060000000
H                -6.7150000000       79.4970000000        5.3060000000
H                -3.7810000000       79.3190000000        4.4040000000
H                -4.5140000000       80.7360000000        5.2050000000
H                -3.0550000000       79.9740000000        5.8980000000
N                -4.5730000000       77.7770000000        9.0590000000
C                -4.9920000000       76.9150000000       10.1140000000
C                -5.5510000000       77.6710000000       11.2630000000
O                -6.5660000000       77.2750000000       11.8290000000
C                -3.8950000000       75.9940000000       10.5350000000
C                -3.7270000000       74.9100000000        9.5600000000
O                -3.5950000000       75.1950000000        8.3480000000
N                -3.8060000000       73.6400000000       10.0330000000
H                -3.5830000000       77.7760000000        8.8140000000
H                -5.7920000000       76.2830000000        9.7280000000
H                -2.9590000000       76.5490000000       10.6020000000
H                -4.1390000000       75.5560000000       11.5030000000
H                -3.6960000000       72.8510000000        9.3960000000
H                -3.9750000000       73.4750000000       11.0250000000
N                -4.9160000000       78.7940000000       11.5730000000
C                -5.4180000000       79.6750000000       12.6090000000
C                -6.9340000000       79.6830000000       12.5130000000
O                -7.6370000000       79.6200000000       13.5240000000
C                -4.8390000000       81.0840000000       12.4570000000
C                -3.3630000000       81.1780000000       12.8200000000
C                -2.9870000000       82.5390000000       13.3620000000
O                -2.9820000000       83.5060000000       12.5670000000
O                -2.7030000000       82.6330000000       14.5850000000
H                -4.0580000000       79.1160000000       11.1260000000
H                -5.1150000000       79.3320000000       13.5980000000
H                -4.9480000000       81.3980000000       11.4190000000
H                -5.3870000000       81.7620000000       13.1110000000
H                -3.1360000000       80.4350000000       13.5840000000
H                -2.7640000000       80.9910000000       11.9290000000
N                -7.4200000000       79.7060000000       11.2770000000
C                -8.8330000000       79.6150000000       11.0160000000
C                -9.2650000000       78.1740000000       11.0210000000
O               -10.0280000000       77.7840000000       11.8990000000
C                -9.1850000000       80.3080000000        9.7080000000
C                -8.9980000000       81.8220000000        9.8150000000
C               -10.3130000000       82.6120000000        9.9420000000
N               -10.6030000000       83.3000000000        8.6820000000
C               -11.8190000000       83.5480000000        8.2010000000
N               -12.9090000000       83.1720000000        8.8750000000
N               -11.9340000000       84.1680000000        7.0320000000
H                -6.8490000000       79.7880000000       10.4360000000
H                -9.3840000000       80.1400000000       11.7970000000
H                -8.5360000000       79.9360000000        8.9160000000
H               -10.2270000000       80.1060000000        9.4610000000
H                -8.3970000000       82.0380000000       10.6980000000
H                -8.4860000000       82.1750000000        8.9200000000
H               -11.1330000000       81.9290000000       10.1650000000
H               -10.2210000000       83.3550000000       10.7340000000
H                -9.8070000000       83.6150000000        8.1270000000
H               -12.8150000000       82.6890000000        9.7690000000
H               -13.8360000000       83.3680000000        8.4960000000
H               -11.0980000000       84.4460000000        6.5180000000
H               -12.8580000000       84.3660000000        6.6480000000
N                -8.7550000000       77.3790000000       10.0800000000
C                -9.1570000000       75.9710000000        9.9470000000
C                -9.7560000000       75.4020000000       11.2430000000
O               -10.8090000000       74.7640000000       11.2290000000
C                -7.9950000000       75.0880000000        9.4730000000
C                -7.4930000000       75.3190000000        8.0290000000
C                -8.3520000000       74.6590000000        6.9300000000
N                -8.5960000000       73.2200000000        7.1020000000
C                -8.3520000000       72.2800000000        6.1840000000
N                -7.8410000000       72.5950000000        4.9990000000
N                -8.6270000000       71.0100000000        6.4490000000
H                -8.0620000000       77.6760000000        9.3930000000
H                -9.9360000000       75.9400000000        9.1850000000
H                -7.1480000000       75.2600000000       10.1370000000
H                -8.3130000000       74.0480000000        9.5370000000
H                -7.4810000000       76.3910000000        7.8340000000
H                -6.4850000000       74.9130000000        7.9430000000
H                -9.3240000000       75.1530000000        6.9100000000
H                -7.8470000000       74.7900000000        5.9730000000
H                -8.9830000000       72.9140000000        7.9950000000
H                -7.6280000000       73.5680000000        4.7780000000
H                -7.6610000000       71.8640000000        4.3110000000
H                -9.0240000000       70.7520000000        7.3520000000
H                -8.4410000000       70.2910000000        5.7490000000
N                -9.0890000000       75.6490000000       12.3620000000
C                -9.6360000000       75.2560000000       13.6460000000
C               -10.9590000000       75.9590000000       13.9390000000
O               -12.0130000000       75.3400000000       13.8260000000
C                -8.6080000000       75.4540000000       14.7520000000
C                -7.7690000000       74.2050000000       14.9710000000
C                -6.2820000000       74.4780000000       15.0770000000
O                -5.8470000000       75.1370000000       16.0420000000
O                -5.5380000000       74.0050000000       14.2010000000
H                -8.1820000000       76.1130000000       12.4090000000
H                -9.8670000000       74.1910000000       13.6220000000
H                -7.9400000000       76.2720000000       14.4800000000
H                -9.1230000000       75.6880000000       15.6840000000
H                -8.0860000000       73.7280000000       15.8980000000
H                -7.9230000000       73.5270000000       14.1310000000
N               -10.9040000000       77.2490000000       14.2640000000
C               -12.0960000000       78.0440000000       14.5630000000
C               -13.2990000000       77.5730000000       13.7740000000
O               -14.3690000000       77.3790000000       14.3390000000
C               -11.8600000000       79.5270000000       14.2750000000
C               -10.7210000000       80.1500000000       15.0760000000
C               -10.3070000000       81.5370000000       14.5710000000
O               -11.1930000000       82.4130000000       14.4440000000
O                -9.0950000000       81.7580000000       14.3240000000
H               -10.0370000000       77.7820000000       14.3300000000
H               -12.3080000000       77.9220000000       15.6250000000
H               -11.6210000000       79.6420000000       13.2180000000
H               -12.7700000000       80.0770000000       14.5140000000
H               -11.0360000000       80.2530000000       16.1140000000
H                -9.8490000000       79.4980000000       15.0140000000
N               -13.1190000000       77.3720000000       12.4730000000
C               -14.2100000000       76.9320000000       11.6100000000
C               -14.6000000000       75.4940000000       11.9220000000
O               -15.7110000000       75.2300000000       12.3980000000
C               -13.8140000000       77.0540000000       10.1360000000
C               -14.9260000000       77.5660000000        9.2030000000
C               -14.7580000000       79.0450000000        8.8160000000
O               -14.7960000000       79.3550000000        7.5970000000
O               -14.6630000000       79.8960000000        9.7270000000
H               -12.2320000000       77.5050000000       11.9870000000
H               -15.0750000000       77.5710000000       11.7880000000
H               -12.9780000000       77.7490000000       10.0600000000
H               -13.5140000000       76.0700000000        9.7770000000
H               -14.9170000000       76.9770000000        8.2860000000
H               -15.8870000000       77.4580000000        9.7060000000
N               -13.6770000000       74.5700000000       11.6710000000
C               -13.9080000000       73.1780000000       11.9770000000
C               -14.5620000000       73.0350000000       13.3460000000
O               -15.3240000000       72.1050000000       13.5870000000
C               -12.6040000000       72.4210000000       11.9490000000
O               -12.8580000000       71.0700000000       11.6550000000
H               -12.7650000000       74.7620000000       11.2570000000
H               -14.5750000000       72.7490000000       11.2290000000
H               -11.9570000000       72.8430000000       11.1800000000
H               -12.1220000000       72.4950000000       12.9240000000
H               -12.0170000000       70.5680000000       11.6320000000
N               -14.2730000000       73.9820000000       14.2290000000
C               -14.9600000000       74.0840000000       15.5030000000
C               -16.4590000000       74.2640000000       15.3200000000
O               -17.2060000000       73.2810000000       15.3300000000
C               -14.3850000000       75.2230000000       16.3380000000
H               -13.5610000000       74.6990000000       14.0880000000
H               -14.8060000000       73.1530000000       16.0480000000
H               -14.9200000000       75.2730000000       17.2860000000
H               -13.3270000000       75.0320000000       16.5180000000
H               -14.5060000000       76.1590000000       15.7930000000
N               -16.8890000000       75.5130000000       15.1240000000
C               -18.3100000000       75.8550000000       15.2150000000
C               -19.2330000000       74.8810000000       14.4990000000
O               -20.3120000000       74.5840000000       15.0120000000
C               -18.5580000000       77.2630000000       14.7420000000
H               -16.2850000000       76.3040000000       14.9020000000
H               -18.5670000000       75.7970000000       16.2730000000
H               -19.6230000000       77.4820000000       14.8230000000
H               -17.9880000000       77.9520000000       15.3650000000
H               -18.2390000000       77.3500000000       13.7030000000
N                 3.8798533660       77.2143323103       16.4926666667
C                 2.8678113017       77.5134240356       15.5026666667
C                 3.0556919158       76.5308428049       14.3686666667
O                 2.1236599760       75.8565161310       13.9436666667
C                 3.0847723204       78.9112115432       14.9496666667
C                 2.7384738126       80.0834049332       15.8476666667
C                 3.0175828890       81.4268360343       15.1366666667
O                 3.6177103276       81.4082872490       14.0276666667
O                 2.6496670671       82.5075871380       15.6766666667
H                 4.2197963429       78.0411308181       16.9846666667
H                 1.8683140641       77.4542440381       15.9336666667
H                 4.1403842946       79.0095851157       14.6976666667
H                 2.4757096370       79.0122840306       14.0516666667
H                 1.6800150508       80.0421005801       16.1056666667
H                 3.3446897085       80.0394016652       16.7526666667
N                 2.3495467560       72.8797635106       15.4056666667
C                 0.9096323153       72.9397585409       15.4686666667
C                 0.2022369275       72.7685137882       14.1206666667
O                -0.7821514187       72.0355031582       14.0176666667
C                 0.4787864035       74.2335115313       16.1786666667
C                -1.0388619748       74.4688674322       16.2606666667
C                -1.8432158038       73.2196857330       16.6556666667
O                -2.7670271985       72.8315974608       15.8956666667
O                -1.5421076031       72.6232204352       17.7156666667
H                 2.8052210931       73.4850146143       16.0886666667
H                 0.5722777956       72.0814433727       16.0506666667
H                 0.8584670916       74.2071377738       17.1996666667
H                 0.9103511587       75.0790036141       15.6426666667
H                -1.2341400484       75.2386358870       17.0076666667
H                -1.3954919907       74.7971661250       15.2846666667
N                 0.6817772901       73.4131020604       13.0766666667
C                -0.0295296404       73.1990823170       11.8376666667
C                 0.2065534770       71.7879902712       11.3466666667
O                -0.7391220563       71.0580322000       11.0436666667
C                 0.2943825929       74.2141147623       10.7486666667
C                 0.1942847017       75.6067401291       11.2916666667
C                 1.6556079227       73.9478261940       10.1746666667
H                 1.4892951468       74.0357640162       13.0576666667
H                -1.0842967140       73.3461721555       12.0686666667
H                -0.4299121413       74.1195994830        9.9396666667
H                 0.4298808912       76.3148046993       10.4976666667
H                -0.8210637875       75.7761049583       11.6506666667
H                 0.9026608516       75.7196836116       12.1126666667
H                 1.8642951468       74.6852830690        9.3996666667
H                 2.3971872666       74.0242792955       10.9696666667
H                 1.6702449802       72.9451783214        9.7476666667
N                -2.3719501115       69.4938910484       12.7926666667
C                -3.6361235730       69.4662783835       12.0606666667
C                -3.5726582752       68.8442035038       10.6956666667
O                -4.4490876746       68.0661832548       10.3056666667
C                -4.2271220067       70.8386390691       11.9136666667
C                -5.2222192073       71.0990801593       12.9506666667
O                -5.0806199349       70.6143372934       14.0826666667
N                -6.2613035209       71.8433333348       12.5986666667
H                -2.1572603100       70.3537446924       13.2976666667
H                -4.2802017207       68.8347023076       12.6726666667
H                -3.4364220807       71.5841715144       11.9996666667
H                -4.7132257433       70.9206826997       10.9416666667
H                -6.9889302689       72.0590468383       13.2806666667
H                -6.3335156432       72.2002582700       11.6456666667
N                -2.5251199845       69.2185930462        9.9736666667
C                -2.2721957399       68.6926706884        8.6596666667
C                -2.5259343267       67.1971825642        8.6516666667
O                -3.0162400610       66.6419481210        7.6766666667
C                -0.8491466340       69.0234640414        8.2386666667
C                -0.6869772666       70.4563496252        7.8186666667
C                 0.0104706801       70.5663649044        6.4776666667
O                 1.2556992778       70.6291641028        6.4766666667
O                -0.6760105876       70.5793444704        5.4236666667
H                -1.8281232525       69.8958267988       10.2846666667
H                -2.9398461899       69.1462661872        7.9276666667
H                -0.1791775627       68.8398845124        9.0786666667
H                -0.5721365095       68.3912596512        7.3956666667
H                -1.6693827789       70.9207733642        7.7336666667
H                -0.0890068140       70.9840648304        8.5606666667
H                 3.0965445155       88.2377951464        9.2929534545
H                -0.1245633578       91.2555004880       11.2569708245
H                -0.6832079147       90.8559425690        8.4491088170
H                -5.7387863571       91.3410516877        8.3978880376
H                -6.0567049922       89.4479619300        6.6528956705
H               -10.7062008515       89.4754749854        7.3601971749
H               -11.3188444268       88.8995221050        4.6084254416
H               -12.4741182682       80.3367892640        2.7671389319
H                -9.0969027982       83.0409486589        0.5925450197
H                -7.8274890339       80.1081059763        1.7686373683
H                 4.4098768129       79.5150815420        3.8623777758
H               -18.9611772192       74.4885885141       13.6202932221
H                 3.5406778232       76.6528587893       17.1088707209
H                 3.9558319128       76.4194833273       13.9475407324
H                 2.6223151420       72.0367919130       15.5637688274
H                 1.1391853802       71.4366373602       11.2645151898
H                -2.3678510706       68.8389456768       13.4099427460
H                -2.2918786512       66.6460331670        9.4525738291
