 355 
 
N                63.7755113309        2.1868681781       22.4730553214
C                63.6901924229        2.7669006515       23.8174341835
C                64.0741327610        1.7168226583       24.8656386692
O                64.1664417973        2.0441857221       26.0417170677
C                62.3043492175        3.3794667712       24.1927025900
C                62.4057061158        4.7112748605       24.9628860270
C                61.1213592857        5.4268232953       25.5948527278
O                60.2313498373        4.8023631127       26.1799622969
O                61.1509026015        6.6597752757       25.5045183452
H                62.9794664862        2.4166717587       21.8832090126
H                64.4242624303        3.5782175108       23.9226645236
H                61.7298369959        3.5297675017       23.2768179334
H                61.7531778163        2.6624997045       24.8037257232
H                63.0755277148        4.5614077632       25.8143283854
H                62.8354709154        5.4890242226       24.3249815529
N                64.2690730374        0.4436132440       24.4643454117
C                64.0023419879       -0.6050665076       25.4244284136
C                65.0695012548       -1.6885328646       25.5637626842
O                65.9589358668       -1.8829608671       24.7687671634
C                62.6611296056       -1.3024788824       25.0755876212
C                61.3809155435       -0.5395372449       25.4086379528
C                61.2731797597        0.6104095020       26.1471423271
C                60.0240364708       -1.0259902827       25.2735455513
N                59.9763647967        0.8547956562       26.4950197304
C                59.1922031766       -0.1388979508       26.0020651616
C                59.4244782595       -2.1303733540       24.6539109048
C                57.8474379783       -0.4105079613       26.2347111672
C                58.0708973739       -2.3440711593       24.8011931928
C                57.2882147717       -1.5192371446       25.6211545657
H                64.1816761750        0.2555239710       23.4739294837
H                63.9227210997       -0.0891971178       26.3886688636
H                62.7265062615       -1.5814627394       24.0236301771
H                62.5995063988       -2.2358633253       25.6425079970
H                62.0401437209        1.2739578122       26.4996120332
H                59.6668110657        1.6872310705       26.9689683414
H                60.0333716937       -2.8630432356       24.1578110830
H                57.2648843903        0.2453249975       26.8644326675
H                57.6085566153       -3.1901519596       24.3206634026
H                56.2426443039       -1.7403734474       25.7690159131
N                64.8375870919       -2.4240232441       26.6973683956
C                64.9343231175       -3.8696611642       26.8301859143
C                64.1088959180       -4.4192500124       28.0297857572
O                63.4417893995       -3.7534016347       28.8047267703
C                66.3783016905       -4.3865112016       26.9428307459
O                66.3846600813       -5.7646196329       26.6262261730
H                64.1322207350       -2.0579398950       27.3283874985
H                64.5007407624       -4.3142724699       25.9207037932
H                67.0008870010       -3.8263415766       26.2412102416
H                66.7461248551       -4.2087167465       27.9612719204
H                67.2956734342       -6.0899488399       26.6475038578
N                64.2161770790       -5.7419543903       28.0543374964
C                63.5331568760       -6.6515776053       28.9390412979
C                64.0055108441       -8.0336416845       28.3724617681
O                63.8590111699       -8.2371457861       27.1792859701
C                62.0212950287       -6.3615236779       28.8184710854
C                61.2266256996       -6.9981978162       29.9090301627
C                61.3459374859       -6.5305645445       31.2108092279
C                60.4007033919       -8.0810972914       29.6339147912
C                60.6698843101       -7.1691440058       32.2332090846
C                59.7173263737       -8.7118771461       30.6548955264
C                59.8652488915       -8.2639439491       31.9580820866
H                64.8898471539       -6.1571442964       27.4134310057
H                63.8507401110       -6.5034709401       29.9787670583
H                61.8997654999       -5.2791697271       28.8694040292
H                61.6738815615       -6.7059958787       27.8448588235
H                61.9454349266       -5.6549158831       31.4151890587
H                60.2852572668       -8.4235585268       28.6176427639
H                60.7386665792       -6.7982459419       33.2461755052
H                59.0601557841       -9.5407147976       30.4408758488
H                59.3248886040       -8.7449945199       32.7597178140
N                64.6593733588       -8.8036891305       29.2594541385
C                65.3805225338      -10.1154287578       29.4460498550
C                65.3825942751      -11.1173901706       28.2545217641
O                64.7778604578      -12.1687100309       28.2065376545
C                64.9851987822      -10.6704584341       30.8479316896
C                65.2817727146       -9.5451519921       31.8072981826
C                64.3874110742       -8.5383771520       32.1122538665
C                66.5923121088       -9.0369942186       32.1652747771
N                65.0435840892       -7.4293498232       32.5880094600
C                66.3933158873       -7.7029431145       32.6346816024
C                67.9043037604       -9.5532601465       32.1306431383
C                67.4747119034       -6.8928099069       32.9906626470
C                68.9631418897       -8.7459991870       32.5038743840
C                68.7506593308       -7.4224983189       32.9174184764
H                64.7172630960       -8.3579375533       30.1731740699
H                66.4365160869       -9.8218776990       29.5540109661
H                63.9294019631      -10.9403779113       30.8816283194
H                65.5855952295      -11.5495541165       31.0639657361
H                63.3154501318       -8.5438672094       32.0302635300
H                64.5891599865       -6.6123406136       32.9582569586
H                68.0702679021      -10.5642686040       31.7934713355
H                67.3029510987       -5.8763437270       33.3140043277
H                69.9709967991       -9.1286074764       32.4732987958
H                69.5901751284       -6.8031850747       33.1972935345
N                66.2314419312      -10.6694517477       27.2923809794
C                66.0735097608      -10.7495419158       25.8517492951
C                66.3618999474       -9.3026607741       25.3044921240
O                67.4917749866       -8.8799732644       25.4648710419
H                66.8327773602       -9.8979892704       27.5596604103
H                66.8566645123      -11.4096886740       25.4691338659
H                65.0795206640      -11.1361493320       25.6478643127
N                65.3463699238       -8.6774924788       24.6408399633
C                65.2115649079       -7.2354078175       24.2517948235
C                63.9666534862       -6.9977752333       23.3635545997
O                63.8189536349       -7.4035970135       22.2237596878
C                66.4758067950       -6.6501218096       23.5508507380
C                66.4826163110       -5.1063063227       23.6339355900
C                66.6279264005       -7.1131134144       22.0810795841
C                67.8902078825       -4.5158270063       23.7647146939
H                64.4245709351       -9.0552485493       24.8182611023
H                65.0697397736       -6.6768014026       25.1778536319
H                67.3229796521       -7.0196215376       24.1348084734
H                66.0026994482       -4.6841652623       22.7473477719
H                65.8891702222       -4.7595464879       24.4693348052
H                67.4916788875       -6.6091878149       21.6552478858
H                66.6962878806       -8.1939416639       22.0261617355
H                65.7715030571       -6.8031142845       21.4901562209
H                67.8084550213       -3.4448737113       23.9327260534
H                68.4352604378       -4.9537194061       24.5973287736
H                68.4621613811       -4.6587455210       22.8503870237
N                62.9773583732       -6.3196968166       23.9689571575
C                61.9236344247       -5.8451035675       23.1144948299
C                62.1818650721       -4.3750411393       22.7944057322
O                63.2786036967       -3.8664095667       22.9154094417
C                60.5328696437       -6.1329917930       23.7077229942
C                60.5193304670       -7.3722177622       24.5655015205
C                60.8687152172       -8.6054381329       23.7514164020
C                61.3738631998       -9.6413674933       24.7450868153
N                61.7637321409      -10.9663417020       24.1555958831
H                63.1314614920       -5.8077473863       24.8246342899
H                62.0426698182       -6.3720717179       22.1579305086
H                60.2165205929       -5.2832807956       24.3179671391
H                59.8240947239       -6.2588099076       22.8905341455
H                61.2345444014       -7.2447647285       25.3781205163
H                59.5307174571       -7.4743691111       25.0135247691
H                59.9899099302       -8.9599675258       23.2154961175
H                61.6437632301       -8.3801350634       23.0191648004
H                62.2366822974       -9.2369908987       25.2822946001
H                60.5959132602       -9.8342882500       25.4862270726
H                62.0225827631      -11.6111269958       24.9171450427
H                60.9570555461      -11.3652336531       23.6459543519
H                62.5260651892      -10.8534254432       23.4685633229
N                61.0275000876       -3.7359689175       22.4680947263
C                60.9916136799       -2.3817607374       21.9790048164
C                59.7008564555       -1.5125803452       22.1832538821
O                58.5520851676       -1.7918457705       21.9263475852
C                61.3964850810       -2.4624960677       20.5005243117
C                62.8927575191       -2.5648930096       20.2875249276
C                63.4467447920       -3.4471208854       19.3556140131
C                63.7372981249       -1.6384595405       20.8907093921
C                64.7888906544       -3.3816140836       19.0012050718
C                65.0870152502       -1.5983694929       20.5718259856
C                65.6444175481       -2.4475095461       19.6070326444
O                66.9831178274       -2.3625585529       19.2914142240
H                60.2374935500       -4.3080687816       22.2018587676
H                61.7924183894       -1.8614961826       22.5035309826
H                60.9060889867       -3.3354083307       20.0628305566
H                61.0378911621       -1.5789827998       19.9733414404
H                62.8182470595       -4.1722622968       18.8622308765
H                63.3657743758       -0.8968164029       21.5837606266
H                65.1761242512       -4.0450251431       18.2455064258
H                65.7200310741       -0.8681705753       21.0603991489
H                67.3996744741       -1.6779208924       19.8295679547
N                60.1114132902       -0.2516811828       22.5041841645
C                59.3157917072        0.9355597722       22.5133081927
C                59.5695012856        1.7084728011       21.2246436524
O                58.8992984687        2.6993132685       20.9335655823
H                60.9959264635       -0.1530485159       22.9803569786
H                58.2544060758        0.6678254249       22.5500330129
H                59.5259636358        1.5642786529       23.3828076466
N                60.4278271403        1.1336453591       20.3717849632
C                60.3503080559        1.3050029942       18.9124361718
C                58.9264957543        1.0687371023       18.3707812632
O                58.5019580676        1.7895964483       17.4834862084
C                61.3745556308        0.3699432956       18.2945367805
C                61.7853450578        0.7435373870       16.8868315886
C                63.2149257204        0.2748173619       16.6209256355
C                60.8041000673        0.1424178665       15.8912602445
H                60.9868383048        0.3632481018       20.7110838448
H                60.5879825767        2.3458364801       18.6630110049
H                62.2594766390        0.4043803557       18.9358732149
H                60.9878474616       -0.6493522997       18.2847529786
H                61.7693120968        1.8362211969       16.7959311728
H                63.5328704181        0.5860004389       15.6299493903
H                63.9045679811        0.6903486110       17.3492808456
H                63.2690381158       -0.8118463052       16.6723014023
H                61.1969456430        0.2468729093       14.8828222300
H                60.6472069721       -0.9044388744       16.1108254013
H                59.8567261439        0.6665985927       15.9455806096
N                58.1861341557        0.0880428560       18.9584653205
C                56.7119067652        0.0656201375       18.9720480614
C                56.0899371378        1.4329358036       19.1512869893
O                55.2389146651        1.8729641057       18.3785679547
C                56.0591135961       -0.7077909314       20.1545720448
C                54.5363899277       -0.7691219798       19.9853978421
C                53.9329112148       -1.2443200717       18.8190008557
C                53.6732340612       -0.4539880167       21.0228150087
C                52.5564902572       -1.3405189197       18.6833955193
C                52.2885252078       -0.5622807326       20.8856609143
C                51.7030338963       -0.9793938840       19.7089607607
H                58.5969319571       -0.4673654894       19.6979328337
H                56.3789050662       -0.3589309197       18.0208277678
H                56.4597549517       -1.7242711481       20.1645990584
H                56.3104577936       -0.2649658437       21.1154543910
H                54.5482437956       -1.5601124263       17.9910276745
H                54.0792731089       -0.1197003923       21.9680640258
H                52.1574166484       -1.6472016343       17.7261778339
H                51.6705775018       -0.2987553210       21.7331957149
H                50.6331871513       -1.0447370099       19.6045275620
N                58.8322257697       -6.2237255735       16.3747327470
C                59.7460251512       -5.6970575727       17.3981125100
C                59.5219163337       -6.2275923640       18.8265596092
O                60.4346413109       -6.2829519326       19.6404615851
C                59.6796785098       -4.1656278156       17.4143763181
C                60.4359283010       -3.5759313696       16.2131638852
O                61.6223169422       -3.8288661179       16.0361038882
N                59.7167852974       -2.7324841317       15.4294699036
H                57.9319672223       -5.7690346300       16.2912206151
H                60.7562992639       -5.9982540138       17.0984035469
H                58.6510252624       -3.8315360418       17.4468896576
H                60.2030031494       -3.8138128472       18.3044524546
H                60.1302966401       -2.4453332331       14.5579357977
H                58.7186365892       -2.6602022154       15.5926436480
N                58.2453463728       -6.5473047173       19.0612758748
C                57.7531916716       -7.2217441710       20.2320409184
C                57.4584566118       -8.6905850820       19.9613141858
O                58.2694832033       -9.5427534569       20.3101587412
C                56.5882090740       -6.4115818677       20.7486393284
C                57.2779884891       -5.2520907309       21.4468122011
C                55.7296218080       -7.2007614857       21.6886691779
C                56.3574537162       -4.1045230184       21.8203229709
H                57.5764389992       -6.4546118401       18.3068324665
H                58.5744075364       -7.2250306703       20.9599970245
H                55.9959616064       -6.0437543651       19.9090966383
H                57.7566639039       -5.6203915577       22.3547238019
H                58.0524076313       -4.8549065958       20.7843339584
H                54.9770013477       -6.5465264536       22.1239997644
H                55.2037769335       -8.0133146105       21.2037979048
H                56.3388795126       -7.6217841901       22.4867231702
H                56.9322123537       -3.2496224266       22.1597223852
H                55.7550861659       -3.7986689843       20.9670377791
H                55.6769971481       -4.3903848707       22.6185709009
N                60.1611626255      -11.0529987734       18.5967058538
C                61.1933885139      -11.5285150935       19.4668237688
C                60.5401594210      -12.5788341131       20.3537237403
O                61.1692850408      -13.5652944536       20.7383150031
C                61.6899399338      -10.2928493360       20.1889164850
C                61.5970770538       -9.2322494129       19.1238474670
C                60.2913563603       -9.6233651308       18.4234778461
H                61.9960057527      -12.0298982742       18.9124404644
H                60.9816387320      -10.0510359485       20.9832090639
H                62.6957804245      -10.4250429520       20.5760264811
H                61.5377243283       -8.2172249057       19.5090514868
H                62.4283968822       -9.2889606679       18.4212438475
H                59.4593585530       -9.1086621545       18.8765736519
H                60.3090711038       -9.3558609479       17.3615501705
N                59.2812340741      -12.3649721927       20.7984740389
C                58.8287963907      -13.2508258198       21.9076313208
C                58.9182958560      -14.6752868022       21.4811888041
O                59.6340805668      -15.4721886875       22.0692119290
C                57.4432007252      -12.9598334537       22.4598147939
C                57.4341341110      -11.5149201145       22.9554904129
C                55.9913945855      -11.1475000219       23.2694564387
C                58.3923908578      -11.3194764581       24.1157487633
H                58.7201966733      -11.5848637504       20.4729087234
H                59.5913208361      -13.1801663596       22.6920853751
H                56.7053763311      -13.0905350961       21.6693874937
H                57.2280292221      -13.6590430861       23.2653518201
H                57.7547592523      -10.8813978492       22.1229097285
H                55.9188699194      -10.1208976310       23.6232616258
H                55.3703354611      -11.2515061818       22.3848397565
H                55.5891764909      -11.8016965803       24.0405226619
H                58.5731704964      -10.2634158731       24.2680789067
H                57.9403703532      -11.7253540663       25.0220188477
H                59.3063892802      -11.8659642417       23.9463988779
N                62.2566294017      -16.2186248226       21.7840831456
C                62.8901179319      -16.4184296329       23.0756431215
C                62.1552118340      -17.4342528687       23.9390415442
O                62.8418881174      -18.0349686171       24.7522573666
C                63.1233382474      -15.1516705538       23.9156116977
C                64.0894763881      -14.2516757958       23.1543165347
C                64.5958411749      -13.0681851650       23.9663106450
C                65.1555469631      -11.9878672451       23.0336067645
N                66.6014700515      -12.2004078813       22.7134306052
H                61.3093603427      -15.8639239811       21.7632406886
H                63.8619365132      -16.8772849375       22.8518164691
H                62.1665045145      -14.6564628631       24.0838476509
H                63.5412034420      -15.4846644869       24.8638402386
H                64.9197203317      -14.8718778961       22.8186896689
H                63.5612033501      -13.9189355069       22.2563935485
H                63.7710120331      -12.6835093647       24.5553948533
H                65.3569234444      -13.4049604989       24.6695770209
H                64.6108105394      -12.0152349528       22.0866253117
H                65.0864740751      -10.9852106644       23.4573972662
H                66.9564039334      -11.4648606417       22.0869815059
H                67.1759434235      -12.2105046046       23.5703570087
H                66.7219642134      -13.1112103192       22.2416194532
N                74.6230999302       -4.6863883554       21.2383000597
C                73.6381451687       -3.6934051237       20.8681025067
C                73.5992658439       -2.5356199468       21.8556951688
O                72.5668661837       -1.9583890463       22.0756591332
C                72.2668311164       -4.3228356089       20.7280644262
C                71.8820499538       -5.1381250493       21.9650890619
C                71.0981851695       -6.3616052947       21.5024727347
C                70.8117128271       -7.3198339743       22.6474697069
N                69.8627666718       -8.3695942877       22.1792773955
H                74.3153121085       -5.5581995545       21.6370591360
H                73.9757817626       -3.2685573340       19.9123713604
H                71.5436678245       -3.5266520924       20.5622622530
H                72.2785552220       -4.9602922918       19.8423399302
H                72.7502178147       -5.4648511895       22.5381831280
H                71.2832570528       -4.5233386993       22.6378604472
H                70.1647780440       -6.0049508773       21.0638697937
H                71.6648589126       -6.8792194870       20.7265903481
H                71.7322714436       -7.7996442968       22.9838327957
H                70.3659543567       -6.7869490670       23.4864810227
H                69.7554035679       -9.1077918295       22.8908613374
H                68.9314961125       -7.9640932268       21.9798018043
H                70.2169061894       -8.7994594225       21.3099359247
N                60.4908131278       -4.6351288995       40.0350481198
C                59.1790735005       -3.9139797245       39.8484524033
C                58.1771120877       -3.9119079832       41.0399804942
O                57.1257922274       -4.5166418005       41.0879646038
C                58.6240438242       -4.3093034761       38.4465705687
C                59.7493502662       -4.0127295437       37.4872040758
C                60.7561251063       -4.9070911841       37.1822483918
C                60.2575080397       -2.7021901495       37.1292274812
N                61.8651524351       -4.2509181691       36.7064927983
C                61.5915591438       -2.9011863710       36.6598206559
C                59.7412421118       -1.3901984979       37.1638591200
C                62.4016923514       -1.8197903549       36.3038396113
C                60.5485030713       -0.3313603686       36.7906278743
C                61.8720039394       -0.5438429275       36.3770837819
H                60.9365647050       -4.5772391623       39.1213281884
H                59.4726245593       -2.8579861714       39.7404912922
H                58.3541243470       -5.3651002952       38.4128739389
H                57.7449481418       -3.7089070288       38.2305365222
H                60.7506350489       -5.9790521265       37.2642387283
H                62.6821616447       -4.7053422718       36.3362452997
H                58.7302336543       -1.2242343562       37.5010309228
H                63.4181585313       -1.9915511596       35.9804979306
H                60.1658947819        0.6764945408       36.8212034625
H                62.4913171836        0.2956728701       36.0972087238
H                64.5146877346        2.4923781616       22.0604030536
H                56.3677583759        2.0120343841       19.9177465080
H                59.2167801869       -6.1539437838       15.5640241668
H                56.6097280664       -8.9539883409       19.5027527620
H                60.3935508381      -11.2093242156       17.7413941710
H                58.3857481684      -14.9972809960       20.6984291350
H                62.7349868229      -15.6271363955       21.3031303223
H                61.1722293374      -17.5738732896       23.8196616911
H                75.0950808421       -4.9271704114       20.5107988430
H                74.4348088968       -2.2510577206       22.3256868135
H                60.9723874268       -4.2223741313       40.6735774425
H                58.3777051485       -3.3774325809       41.8610154924
