 66 
 
N                25.5310000000       43.6130000000       14.8890000000
C                26.2620000000       42.4640000000       14.3340000000
C                25.8500000000       41.0980000000       14.9100000000
O                26.4530000000       40.0980000000       14.5470000000
C                27.7430000000       42.5430000000       14.6490000000
C                28.2000000000       43.8440000000       14.0620000000
O                28.3620000000       44.8390000000       14.7490000000
N                28.2940000000       43.8010000000       12.7310000000
H                26.0480000000       44.1160000000       15.6000000000
H                26.0750000000       42.4230000000       13.2540000000
H                27.9220000000       42.5130000000       15.7230000000
H                28.2480000000       41.6980000000       14.1880000000
H                28.0730000000       42.9760000000       12.2010000000
H                28.5260000000       44.6350000000       12.2140000000
N                24.9590000000       41.0920000000       15.9030000000
C                24.4450000000       39.8180000000       16.4040000000
C                23.8780000000       39.0080000000       15.2380000000
O                23.2930000000       39.5910000000       14.3300000000
C                23.2970000000       40.1750000000       17.3390000000
C                22.7640000000       38.9240000000       18.1050000000
C                21.8440000000       39.3950000000       19.2210000000
O                22.3030000000       40.1500000000       20.1270000000
O                20.6690000000       38.9920000000       19.1990000000
H                24.3500000000       41.8960000000       16.0130000000
H                25.2420000000       39.2730000000       16.9100000000
H                23.6660000000       40.8700000000       18.0920000000
H                22.4870000000       40.6380000000       16.7730000000
H                22.2150000000       38.2530000000       17.4490000000
H                23.6010000000       38.3810000000       18.5470000000
N                24.0370000000       37.6750000000       15.3450000000
C                23.4360000000       36.8150000000       14.3300000000
C                22.5860000000       35.7280000000       14.9680000000
O                22.8210000000       35.2530000000       16.0720000000
C                24.5750000000       36.1200000000       13.5600000000
C                25.3950000000       37.1390000000       12.7840000000
C                26.6760000000       36.5060000000       12.2420000000
O                27.1240000000       35.4440000000       12.6820000000
N                27.2270000000       37.1630000000       11.2430000000
H                24.5710000000       37.2540000000       16.1040000000
H                22.8420000000       37.4420000000       13.6640000000
H                25.2120000000       35.5850000000       14.2620000000
H                24.1610000000       35.3860000000       12.8690000000
H                24.8290000000       37.5520000000       11.9500000000
H                25.6920000000       37.9690000000       13.4290000000
H                26.8690000000       38.0560000000       10.9230000000
H                28.1010000000       36.8430000000       10.8470000000
O                28.2330000000       38.0800000000       15.1410000000
H                29.1530000000       38.3570000000       15.0060000000
H                27.6730000000       38.7330000000       14.7110000000
O                27.4130000000       34.9810000000       15.5720000000
H                27.3900000000       35.5070000000       14.7660000000
H                26.6380000000       35.1960000000       16.0980000000
O                26.0590000000       36.9060000000       17.3010000000
H                26.7940000000       37.0650000000       16.6900000000
H                26.2510000000       37.4840000000       18.0760000000
O                29.1880000000       40.6910000000       16.3550000000
H                29.9790000000       40.4500000000       15.8640000000
H                28.6180000000       39.9170000000       16.2800000000
O                31.7198504123       36.8003925226       13.8520000000
H                31.1830324816       36.0225965923       14.0140000000
H                32.4807021696       36.7202264232       14.4710000000
O                30.8364976440       38.9523806468       15.1660000000
H                31.1141225052       38.2632410119       14.5180000000
H                31.3455436668       38.7300742218       15.9510000000
H                25.3430165106       44.1962854415       14.2298791450
H                21.7901580571       35.3661096546       14.4825404448
