 432 
 
N                20.7528685047       39.1948255581       75.8823741528
C                19.6604625766       39.7605126315       75.1057263580
C                19.4489677968       41.2738216505       75.3590449295
O                18.8990818725       41.9790682059       74.5934181725
C                18.4018231796       38.9516693543       75.4110043259
C                17.1889853676       39.3596046062       74.6237376068
C                16.2374855197       40.2146875511       75.1903860314
C                16.9684517144       38.8049151422       73.3916848769
C                15.0703197843       40.4863328334       74.5573238392
C                15.7706879242       39.0815930548       72.7305795218
C                14.8227384049       39.9181694857       73.3204000617
H                20.4858210980       38.5403404550       76.6575615181
H                19.8987736169       39.6611915229       74.0580117542
H                18.6294135528       37.8973279284       75.2341982340
H                18.1892014515       39.0304002849       76.5042882238
H                16.4000072866       40.5816219098       76.2017042107
H                17.6752351627       38.1365275105       72.9485594399
H                14.3341982746       41.1282608927       75.0020215920
H                15.5635737945       38.6528942821       71.7627079772
H                13.9062275375       40.1439171810       72.7820256339
N                19.9846758323       41.7477592576       76.5162463064
C                20.0722189200       43.1851852688       76.7380439721
C                20.9352354395       43.8780996715       75.6543743076
O                20.6959143097       45.0198221844       75.3144345939
C                20.6721028690       43.4804111391       78.1390510960
C                19.6817653624       43.4140818190       79.3021929063
C                18.7629802024       44.6535033327       79.3585740783
C                17.9387046976       44.6580909271       80.6456405591
N                17.1925179733       45.9472879142       80.7995674377
H                20.3462937043       41.1238248116       77.2239889037
H                19.0842227744       43.6340332844       76.6608039524
H                21.4823680984       42.7680331952       78.3128236840
H                21.1188099246       44.4781562226       78.1057542539
H                19.0905035944       42.5059223770       79.2544304894
H                20.2648122441       43.3717486225       80.2236471543
H                19.3975493835       45.5388742384       79.3530945796
H                18.0957277617       44.6614036861       78.5131719669
H                17.2198270617       43.8375840761       80.6493185263
H                18.5856699443       44.5275817537       81.5264611431
H                16.4663046126       45.8845323786       81.6293879989
H                17.8277016947       46.7123927045       81.0198717786
H                16.6197713263       46.1455742421       80.0033955026
N                20.0153864201       43.8279953975       71.2797148279
C                18.9398773140       44.6966966367       70.8682079325
C                19.1533358745       46.1078533090       71.4072285240
O                18.8790195353       46.3474035878       72.6022479096
C                17.6383739442       44.2390260485       71.5278309236
C                17.1699034613       42.8463751252       71.1850808841
C                16.4704155318       42.7317428312       69.8605128023
C                16.2316105277       41.2767652602       69.4814175304
N                17.4799298943       40.7473600526       68.7521055150
H                20.4415414922       44.0430424871       72.1692621627
H                18.8938109892       44.6942651950       69.7668435216
H                17.8290689385       44.2839133611       72.5947562186
H                16.8693680848       44.9693002311       71.2613606075
H                18.0153654180       42.1549124534       71.2479177011
H                16.4701960609       42.5210995368       71.9680913242
H                15.5102997579       43.2450376128       69.8840355279
H                17.0667963360       43.2222983341       69.0717657775
H                16.0490550606       40.6977470707       70.3751455850
H                15.3816439858       41.1645933846       68.8113321320
H                17.3977653032       40.9300600956       67.7723893455
H                18.3147479159       41.2600364784       69.1256256991
H                17.5596236141       39.7333639557       68.9307904296
N                19.5150575177       47.1225709048       70.5686915171
C                19.3980725609       48.4574543770       71.1367827609
C                17.9465512011       48.5399502552       71.6671675491
O                17.0458266544       47.9787327522       71.0488407541
C                19.6417771960       49.5407654601       70.0464184803
O                20.9454882211       49.3620208765       69.6262035318
H                19.8247550878       46.9948380910       69.6501118902
H                20.1130034092       48.5932893566       71.9605166438
H                18.9251053023       49.4043188712       69.2554676020
H                19.4743406959       50.5161336939       70.5416289621
H                21.2059482816       50.1840236417       69.0375305337
N                17.7214531852       49.2983989012       72.7630258544
C                16.3639835530       49.4187154360       73.3173228537
C                15.3117826621       49.3587068578       72.2017089313
O                14.4118615202       48.5365577754       72.2179049086
C                16.2418071710       50.7144322429       74.1320734046
C                14.7909298302       51.1521803669       74.3963324044
C                13.9665869364       50.0803021493       75.0600694970
C                14.8199708435       52.4010449165       75.2804937066
H                18.4765009383       49.6957414894       73.2973050973
H                16.1706971848       48.5518794918       73.9648019229
H                16.7450050216       50.5742283597       75.0910801263
H                16.7532800686       51.5225783362       73.6012425192
H                14.3098272421       51.4103443919       73.4566606744
H                12.9615955879       50.4333795020       75.2622322790
H                13.9015463419       49.1765471037       74.4655695260
H                14.4067598149       49.8101328130       76.0413111069
H                13.8152435984       52.7753034332       75.4555936101
H                15.2576330567       52.1912825398       76.2581896576
H                15.3919145494       53.2132499385       74.8290887640
N                15.4429300070       50.2833251905       71.2291262526
C                14.4864669144       50.4701022754       70.1738770361
C                14.0595580129       49.1322450163       69.5497314906
O                12.8814506615       48.8656029654       69.3516720063
C                15.1028341767       51.3664656048       69.1175720951
H                16.1349696531       51.0205734925       71.3519547348
H                13.5698241300       50.9298045751       70.5773728362
H                14.3869489154       51.4989535295       68.2904565454
H                15.3084328464       52.3475788471       69.5266183417
H                16.0063177849       50.9270025553       68.7139076964
N                15.0928601965       48.3622681395       69.1557978180
C                14.8809138235       47.1437841513       68.3808175990
C                13.8440064104       46.2400352597       69.0716116495
O                12.9144542149       45.6991423207       68.4850826357
C                16.2083839724       46.3870955742       68.1530543126
C                17.3821829488       47.2695568043       67.6880852607
C                15.9622333114       45.2264370060       67.1694928081
C                17.1999492900       47.9262297029       66.3300588563
H                15.9752015717       48.4587365553       69.6168351679
H                14.4322876603       47.4260477498       67.4124197526
H                16.4915612937       45.9788785280       69.1307348842
H                17.5504384065       48.0335538660       68.4239180879
H                18.2526725388       46.6233312788       67.6322902224
H                16.8969374188       44.7101082796       66.9879559879
H                15.2270834334       44.5332648430       67.5782686110
H                15.5778253382       45.6055242047       66.2371851765
H                18.0452438859       48.5607837262       66.1032170239
H                17.1188130943       47.1852709178       65.5263115627
H                16.2959354505       48.5440076904       66.2976080392
N                14.1069478046       46.0049151478       70.3696878291
C                13.2335769655       45.1538057525       71.1397900196
C                11.9500244113       45.8490252768       71.6217120532
O                10.9006314078       45.2199415489       71.8118070038
C                13.9819958142       44.5275114628       72.3376396378
C                14.2283401170       45.4634726166       73.5341580250
C                15.6904978170       45.3629128894       73.9944556197
N                15.8218120675       45.9697406992       75.3136553963
C                17.0012345942       46.2140653998       75.9103948791
N                18.1521694473       46.1179854675       75.2781339770
N                16.9628659920       46.4937988421       77.2536045086
H                14.7525066813       46.6016504022       70.8714128637
H                12.9037787034       44.3477434149       70.4754957320
H                13.3765284018       43.6772562102       72.6692151311
H                14.9222405347       44.1543069238       71.9659245338
H                14.0183925181       46.4982871745       73.2634177737
H                13.5670845121       45.2063219694       74.3569342171
H                15.9866960000       44.3180953373       74.0551867026
H                16.3195771166       45.9023609454       73.2913619812
H                15.0017911180       45.9888286869       75.9143136501
H                18.2312108880       46.0291491260       74.2743169526
H                19.0179016153       46.2594453154       75.7756109716
H                16.0444961398       46.5647689208       77.6573046828
H                17.7070902986       47.0279236594       77.6372859100
N                12.0547700844       47.1732408261       71.8515056376
C                10.9227532821       47.9361098320       72.3076177015
C                 9.6991720482       47.5809183462       71.4410413862
O                 8.5811188174       47.3862599839       71.9243046723
C                11.3063363356       49.4044954865       72.2265524304
C                10.1938903707       50.3076457500       72.7001376656
C                 9.8601049826       50.0216671835       74.1397624255
O                10.4869547094       50.5169924331       75.0743501318
N                 8.8288246776       49.1581934935       74.3061674297
H                12.9300871949       47.6525319142       71.7272722272
H                10.6770231696       47.6594748789       73.3327732432
H                12.1783722640       49.5748153934       72.8266199813
H                11.5332715637       49.6441009338       71.1698981905
H                10.5080661248       51.3605307969       72.6347968933
H                 9.2867435218       50.1975102303       72.0755498084
H                 8.3986857395       48.6933492243       73.5445929722
H                 8.5441929969       48.9442182620       75.2654189796
N                 9.9979623712       47.4897967404       70.1313291710
C                 9.0146522887       47.1230195863       69.1265428781
C                 8.3417353600       45.7982271054       69.5405386244
O                 7.1069326847       45.6817798178       69.6884835261
C                 9.7088513971       47.0071403342       67.7658489421
C                 8.7326890633       46.7172242467       66.6228219164
C                 8.0446581965       48.0116489308       66.0763780930
O                 7.9605998428       49.0013233297       66.8408917958
O                 7.6342703108       47.9308759805       64.8731512193
H                10.9015548527       47.7829747936       69.7891107020
H                 8.2236912112       47.8798057538       69.0516605421
H                10.2004835640       47.9546682854       67.5683274811
H                10.4800722919       46.2257112687       67.8088871748
H                 9.2466250772       46.2505441916       65.7818166322
H                 7.9324602114       46.0511188613       66.9484025456
N                 9.1955078480       44.7783970855       69.6907206994
C                 8.8064853023       43.3789943934       69.8954098440
C                 7.8802021960       43.2375052613       71.1095515183
O                 6.9303395053       42.4387087659       71.1198877923
C                10.0770973101       42.5270090724       70.0429231627
C                 9.8085554576       41.0517931704       69.8351864022
C                11.1146906629       40.2422498230       69.5116842973
O                10.9196738943       39.0828064386       69.1193526522
O                12.2360798434       40.8032878880       69.6492543838
H                10.1817899583       44.9566435856       69.5835313039
H                 8.2346877146       43.0526653772       69.0012703601
H                10.7826596404       42.8536088626       69.2650525167
H                10.5149583437       42.7226060929       71.0071561692
H                 9.3337111422       40.6227435764       70.7196139777
H                 9.1384906550       40.8859051783       68.9861554870
N                 8.2172764807       43.9994338295       72.1420258784
C                 7.4070821237       44.1038494816       73.3010355064
C                 5.9736342419       44.4391783221       72.9217070300
O                 5.0054616643       43.7285157774       73.2066652235
C                 7.9628925589       45.1863518272       74.2112548863
C                 7.0241130620       45.3506744717       75.4389763257
C                 9.3831281328       44.8592003889       74.6591020622
H                 9.0156700938       44.6157347079       72.0404382968
H                 7.3861412420       43.1270165420       73.8284481680
H                 7.9976829033       46.1209998480       73.6699428402
H                 7.2843393278       46.2616005640       75.9855345749
H                 5.9987703978       45.4472017113       75.1128486781
H                 7.1170732426       44.5022966096       76.1029271352
H                 9.7761138584       45.6468420239       75.3085246024
H                 9.4041669863       43.9275693242       75.2575787057
H                10.0492327709       44.7500580983       73.8305270961
N                 5.8513102960       45.6147010106       72.2893029467
C                 4.5382860730       46.0851628989       71.8774154334
C                 3.8201949973       45.0205045515       71.0237175581
O                 2.6905798830       44.6704996875       71.2669952202
C                 4.6697784057       47.3969573318       71.1362260911
H                 6.6448245152       46.1276336013       71.9662666514
H                 3.9071331735       46.2124241872       72.7692482113
H                 3.6882491505       47.7299795423       70.7704069283
H                 5.0699839948       48.1596875627       71.7843306654
H                 5.3232001490       47.2797682098       70.2693661966
N                 4.5809563558       44.5356836685       70.0113263618
C                 4.0404900749       43.6186876880       69.0368946622
C                 3.3418495018       42.4212729029       69.7102734972
O                 2.2280444347       42.0415100079       69.2942902444
H                 5.4961892268       44.9112243903       69.8502019451
H                 3.3160586907       44.1033488140       68.3981994990
H                 4.8638430196       43.2248661408       68.4417366894
N                 4.0043899466       41.7840677639       70.6964597735
C                 3.4788065168       40.5540822085       71.2502180846
C                 2.3543404174       40.8251018945       72.2250201259
O                 1.4049506016       40.0845623222       72.2916788075
C                 4.5858373527       39.6624050337       71.8016634366
C                 4.1814954128       38.1868913355       71.7303909650
C                 4.9380282920       40.0494765729       73.2327680734
C                 4.2250429275       37.6097480226       70.3431504058
H                 4.9275703075       42.1048173488       70.9475643959
H                 2.9886767378       40.0313666937       70.4016004485
H                 5.4826938417       39.8294752735       71.1857494906
H                 4.9077284030       37.6259106039       72.3450390111
H                 3.2001015441       38.0764313174       72.1632983535
H                 5.8037494120       39.4643755988       73.5607442023
H                 5.2066276140       41.1037825811       73.3004879869
H                 4.1073843832       39.8562372542       73.9066555553
H                 4.0002218386       36.5510411640       70.3534658145
H                 3.5128282416       38.1127513882       69.6789691385
H                 5.2234817571       37.7426389588       69.8950887263
N                 2.5357835410       41.9154528768       72.9965987031
C                 1.4975429357       42.3702944748       73.9058965259
C                 0.2342379857       42.7865333860       73.1403361774
O                -0.8537165776       42.8003248256       73.6921052098
C                 1.9666084014       43.5329320799       74.7876677335
C                 2.3763325257       43.1291280372       76.2172094971
C                 1.1949374589       42.6490323263       77.0719843518
N                 1.5474830530       42.7647810637       78.4729362885
C                 0.7029385018       42.4970709885       79.4910394750
N                -0.5327523840       42.1075085069       79.3591192936
N                 1.1322279577       42.6189045780       80.8064898869
H                 3.3385631264       42.5079115135       72.8835199615
H                 1.1730838204       41.5116672657       74.5234900410
H                 2.8113352083       43.9994212264       74.3002982248
H                 1.1578375345       44.2617706567       74.8539836694
H                 3.1364035683       42.3569946359       76.1711505942
H                 2.7943725378       44.0190130099       76.6833372279
H                 0.3075389042       43.2554933074       76.8515565379
H                 0.9534269697       41.6034793783       76.8498856425
H                 2.4651961470       43.0808962507       78.6938622286
H                -0.9760612448       42.0210880752       78.3928533091
H                -1.1170718742       41.9721515924       80.1093089508
H                 2.1350508676       42.9704742353       80.9351585149
H                 0.5787387041       42.5423668909       81.5146885341
N                 0.4152701026       43.0909780771       71.8499980993
C                -0.7403989556       43.4434450776       71.0550700020
C                -1.5334942817       42.1502659760       70.7649782657
O                -2.7015535846       42.0096482544       71.1019813092
C                -0.3139611586       44.1464289814       69.7611577635
H                 1.3196876824       43.3437862085       71.4919500694
H                -1.4156136578       44.0820834452       71.6327846797
H                -1.1824057951       44.3382575143       69.1387078529
H                 0.1709943221       45.0760909483       70.0054401181
H                 0.3897505835       43.5195441683       69.2091685798
N                 5.3619268318       38.7794064302       78.9520772580
C                 6.5720925378       38.3415914027       78.2098636186
C                 7.7961557819       38.2934254284       79.1148629168
O                 8.2442969519       39.3448903480       79.6650751810
C                 6.7307531571       39.4127905524       77.1055827746
C                 6.2514142477       40.6820719613       77.8263089267
C                 5.0916636656       40.1879048385       78.7551699076
H                 6.4083635964       37.3464962017       77.8141171702
H                 7.7405123296       39.5063709107       76.7571278985
H                 6.0572036743       39.1803184166       76.2788562677
H                 7.0403169660       41.1045875343       78.4291086903
H                 5.9016227901       41.4471237346       77.1231711318
H                 5.1051545457       40.7362911173       79.6813116645
H                 4.1351699813       40.3220040571       78.2397347745
N                12.6468345436       33.9853138065       74.9960646614
C                11.4423719128       34.7318873644       75.2026234539
C                10.2853995218       33.7397652684       75.3649056758
O                10.1666314656       32.8619754281       74.6272679880
C                11.2280780523       35.7670633308       74.0379536278
C                11.6682627450       35.2513999166       72.7341853728
C                11.2212750693       36.1660324643       71.5882917919
C                11.5978459237       35.5448811036       70.1747985411
N                10.9402291402       36.2753201972       69.0370734171
H                12.6003879887       33.2805809882       74.2764453942
H                11.5669062570       35.3111256357       76.1604143662
H                10.1596393598       36.0021021993       74.0445227168
H                11.7727825505       36.6714775027       74.2879399225
H                12.7606268081       35.1598408932       72.7048721553
H                11.2433366217       34.2326987641       72.5713075487
H                10.1399993089       36.2779354371       71.6118417033
H                11.6663452828       37.1256682507       71.6811991023
H                12.6903379070       35.6465384624       70.0690253948
H                11.3349526284       34.5123293452       70.1162178179
H                11.3228767936       36.0193493902       68.1596380415
H                 9.9423365704       36.2510719049       69.1002441758
H                11.1589186851       37.3581060804       69.1645824138
N                10.8235540661       45.5321871921       83.2685581856
C                11.9163874518       46.3924873723       82.8572564558
C                11.3936279592       47.7037464950       82.2415575887
O                10.1893058404       48.0302393373       82.1941604181
C                12.7800732368       45.6432274313       81.8455796533
C                14.2229806283       46.1863294576       81.6008626725
O                15.1063087855       45.8452893509       82.4367140958
O                14.4737115771       46.8572202816       80.5607501750
H                10.5388686666       44.8572817088       82.5726337831
H                12.4978748621       46.6712314614       83.7329124496
H                12.8974990549       44.6163574399       82.2174437414
H                12.2595564770       45.6002369258       80.8815297321
N                12.3899277298       48.4637399719       81.7588178736
C                12.2030271461       49.7660708415       81.0994929474
C                11.3515591895       49.5076025088       79.8688768247
O                10.3565943460       50.1308717239       79.6176422839
C                13.5461418993       50.4385046886       80.6862299721
C                14.7516877553       50.0955003182       81.5800975707
C                14.5580367209       50.2461613408       83.1617252265
O                13.6363787822       50.9635907699       83.6212521027
O                15.4070288912       49.6155935817       83.8352718796
H                13.3449982800       48.2071250807       81.9496293564
H                11.6472373874       50.4206484378       81.7791430759
H                13.7797363594       50.1230951836       79.6814999324
H                13.3640974284       51.5016201745       80.7129121833
H                15.0801648224       49.0736197372       81.4204552286
H                15.5595865428       50.7641474262       81.3251616187
N                11.9003782078       48.5517448569       79.0462151618
C                11.0520197682       47.8873655597       78.0555014870
C                10.1607674053       46.8557830634       78.8516968899
O                10.2729999564       46.6367912162       79.9906121116
C                11.9079744794       47.2361114890       76.9894359655
C                12.7131569974       46.0441284463       77.5962074837
O                12.0637547453       45.1671005778       78.2390052942
O                13.9207070405       46.0508094874       77.3686330217
H                12.6036134258       47.9701699531       79.4705508230
H                10.4007266334       48.6682915193       77.6531636998
H                11.2641825978       46.8626634583       76.1924930512
H                12.5894307275       47.9778715294       76.5773787426
N                 9.1232289474       46.3511220050       78.1006412887
C                 8.1066680320       45.6195128240       78.8021075662
C                 8.4379695590       44.1679819228       79.0690944569
O                 7.5376202821       43.4435180546       79.5685415237
H                 9.0614141959       46.4916743817       77.1121679731
H                 7.9723026196       46.0811258302       79.7804715801
H                 7.1664346065       45.6840548851       78.2464414034
N                 9.6363988180       43.7030374152       78.7409012237
C                10.0217937861       42.3936685451       79.2199345498
C                10.2518425715       42.3870665724       80.7213011360
O                10.5906636698       43.4408043774       81.3470686237
C                11.3240545968       41.9671034579       78.5644454117
C                11.1826737135       41.6213327877       77.0989647277
C                10.2895768190       40.6556955700       76.6852711310
C                12.0016871252       42.2242822827       76.1578794529
C                10.2071722655       40.3006328513       75.3244871652
C                11.9151479489       41.8924363592       74.8316797953
C                11.0146672538       40.9117595634       74.3960363240
H                10.3921692128       44.3451506357       78.5467311606
H                 9.1999507576       41.6913103120       79.0146344746
H                12.0423787302       42.7661484183       78.6768803710
H                11.7126205962       41.0756672181       79.0884860533
H                 9.6788096256       40.1420790059       77.4100625487
H                12.6870232711       43.0022273585       76.4815564987
H                 9.5213067282       39.5350054109       75.0100204608
H                12.5199028383       42.4067044856       74.0921273296
H                10.9452763746       40.6727569827       73.3540195793
N                 8.8925161062       32.8736718234       69.9652966126
C                 8.4303574296       33.4882305549       71.2697990094
C                 7.6136611539       32.4373178727       72.0128126599
O                 6.4140526214       32.2657562857       71.7064874925
C                 7.5153113098       34.6945748942       70.9230389623
C                 7.5734857975       35.7309979083       72.0288630722
C                 7.3249273589       35.3743300278       73.3154166638
C                 7.9327514636       37.0704510897       71.7368509001
C                 7.4168373387       36.3227812484       74.3350020785
C                 8.0706698133       38.0116795726       72.7504544213
C                 7.8039278433       37.6395415635       74.0229669087
H                 9.3090238147       33.5337754228       69.3361349820
H                 9.5123858767       32.0669714820       70.1478444684
H                 8.0244041269       32.4819314537       69.4830222988
H                 9.2775772629       33.7930816089       71.8339033120
H                 7.8004669304       35.1697123846       69.9832868074
H                 6.4817172599       34.3581116268       70.8330165139
H                 7.0408988327       34.3709155381       73.5668720083
H                 8.1038290596       37.3759777047       70.7081075271
H                 7.2344016694       36.0572489922       75.3630446399
H                 8.3277872726       39.0182823190       72.5010728003
H                 7.8641352705       38.3490304995       74.8413572772
N                12.3899277298       58.4554120095       78.0423473893
C                12.2030271461       57.1530811399       78.7016723155
C                11.3515591895       57.4115494726       79.9322884382
O                10.3565943460       56.7882802575       80.1835229790
C                13.5461418993       56.4806472928       79.1149352908
C                14.7516877553       56.8236516632       78.2210676921
C                14.5580367209       56.6729906405       76.6394400363
O                13.6363787822       55.9555612114       76.1799131601
O                15.4070288912       57.3035583997       75.9658933833
H                13.3449982800       58.7120269007       77.8515359065
H                11.6472373874       56.4985035435       78.0220221870
H                13.7797363594       56.7960567978       80.1196653305
H                13.3640974284       55.4175318069       79.0882530796
H                15.0801648224       57.8455322442       78.3807100342
H                15.5595865428       56.1550045551       78.4760036441
H                21.2952981202       38.7245202755       75.3396190944
H                21.6949376212       43.3855806468       75.2297832038
H                19.7109206690       42.9836698486       71.3461600978
H                -1.0934817412       41.3906898446       70.2859865489
H                 4.7362778207       38.1335467365       78.9142808152
H                 8.2596318942       37.4234423024       79.2831461717
H                13.3109630442       34.5454754156       74.7612193795
H                 9.6308195917       33.8529301805       76.1123806371
H                11.0658708792       45.0677819910       84.0004122498
H                10.1373080273       41.5404095793       81.2409681200
H                 8.0384689972       31.8938388911       72.7368077517
H                11.9645201135       58.4544195689       77.2492349288
H                11.6114174988       58.1292214178       80.5783694224
