 431 
 
N                61.9057081563       12.7727134832       18.7841210844
C                61.4540196597       11.4305428154       19.0724341712
C                62.2422567023       10.8279691485       20.2267028480
O                63.3434851042       11.2305598234       20.5611002498
C                61.6024129929       10.5107192937       17.8466822165
C                60.2597327853       10.4936348057       17.0325252734
O                59.2772780782       10.0427450121       17.6528339065
O                60.3177400237       10.9072399611       15.8613690296
H                62.9018686564       12.9263269629       18.8670525721
H                60.3875012654       11.4787176229       19.3277931353
H                62.4127206162       10.8468815694       17.2000868114
H                61.7883522936        9.4792367852       18.1519012278
N                61.6239910189        9.7800217284       20.7933692957
C                62.1653662741        9.0215177196       21.9121562588
C                61.5477054687        7.6377991625       21.8611240923
O                60.3802184939        7.4015151404       22.1859161854
C                61.9010764978        9.7359763228       23.2655073315
C                60.5359950058       10.3569335432       23.3044925112
C                59.4541974792        9.6736008002       23.8468112744
C                60.3276702920       11.6078409424       22.7334966064
C                58.1833615811       10.2195566946       23.7915082737
C                59.0594609551       12.1547690802       22.6792765646
C                57.9839302852       11.4579624777       23.2024508680
H                60.6999558893        9.5336693505       20.4713136861
H                63.2475153007        8.9388596997       21.7672084223
H                61.9911099339        8.9828099688       24.0492117580
H                62.6678251190       10.5039113597       23.3807327164
H                59.6109434726        8.6932051622       24.2771894686
H                61.1630561933       12.1422975163       22.3052548441
H                57.3468412394        9.6612418141       24.1896464701
H                58.9149018382       13.1173290315       22.2127030034
H                56.9893373429       11.8707873802       23.1387602931
N                62.4413043953        6.6411334611       21.3893510979
C                61.8958879399        5.2897277818       21.3601053629
C                62.9780050247        4.2149297995       21.3467216006
O                62.7010736840        3.0148380426       21.4279997533
C                60.9554718447        5.0607873266       20.1790278324
H                62.8071517307        6.9010341730       20.4749588595
H                61.3165249207        5.1639480676       22.2858879055
H                60.5570766161        4.0484427451       20.1961821936
H                60.1083176628        5.7397051242       20.2721855032
H                61.4696981771        5.2238447504       19.2291199023
N                64.2281460125        4.6819979159       21.2511608857
C                65.4680751378        3.9191120151       21.2491285444
C                65.8154576531        3.4490922589       22.6760039811
O                66.8985351236        3.6468244295       23.2027371808
C                66.5751303532        4.8078863978       20.6672274105
C                66.8409137391        6.0360023904       21.5429945797
C                67.8034903746        7.0405680711       20.9125716200
C                67.9132502951        8.2399908247       21.8506031637
N                68.9200256428        9.2272962204       21.3767458278
H                64.3195666359        5.6853575248       21.3355033528
H                65.2914112677        3.0345495976       20.6235267458
H                67.4740184986        4.1956980429       20.6029783644
H                66.2748856979        5.1122403549       19.6631773492
H                65.9000831467        6.5487325272       21.7597923850
H                67.2500104270        5.6846223574       22.4885568631
H                68.7718572713        6.5577847473       20.7850301868
H                67.4207379886        7.3434422963       19.9372338219
H                66.9410165754        8.7307087300       21.9236998614
H                68.2062215897        7.8915023761       22.8416299692
H                68.9276613465       10.0426233724       22.0064376879
H                69.8621276546        8.7976879480       21.3778407247
H                68.6880223829        9.5350073399       20.4209792656
N                64.8128745180        2.8100843438       23.3194767012
C                64.7269657896        2.8901076916       24.7577617995
C                64.8114977668        1.5714825642       25.5162567026
O                65.0802561768        1.5816083085       26.7087070390
C                63.3760246076        3.4980159260       25.1763533106
C                63.2014644271        4.9631233801       24.8263965435
C                61.7711545196        5.4824819456       25.2083245630
O                60.8682303924        4.6344712372       25.3567501205
O                61.6689050802        6.7170513740       25.3393587968
H                63.9411187561        2.6654745799       22.8232886586
H                65.5519604984        3.5241226401       25.1050325600
H                62.5690486951        2.9318620349       24.6951539425
H                63.2584584860        3.3903317303       26.2561845391
H                63.9336120742        5.5934922622       25.3320935983
H                63.2859431293        5.1212435210       23.7496911113
N                64.4779582279        0.4582622756       24.8505722596
C                64.1064478727       -0.7346491674       25.5717563775
C                65.1046947409       -1.8944291689       25.4793639915
O                65.8875225926       -2.0851530396       24.5652922189
C                62.7579234171       -1.2751887012       25.0898856612
C                61.5691091762       -0.5373907310       25.6068129544
C                61.5254000552        0.6738808903       26.2370365534
C                60.2259456562       -1.0110119074       25.5439181127
N                60.2352122697        0.9755314301       26.5969252058
C                59.4180775417       -0.0234065687       26.1520781438
C                59.6343005136       -2.1715664245       25.0345015900
C                58.0446093212       -0.1814329726       26.2685384376
C                58.2677229650       -2.3197872365       25.1491419535
C                57.4863505760       -1.3412678276       25.7570616373
H                64.2998375710        0.5319734669       23.8605824108
H                64.0423668678       -0.4285042593       26.6237334526
H                62.7779562653       -1.2658890916       23.9942261847
H                62.6651630774       -2.3325589514       25.3545964241
H                62.3212991699        1.3433613559       26.4898120159
H                59.9402633302        1.8976825518       26.8734259143
H                60.2390127479       -2.9166568370       24.5348897571
H                57.4367347514        0.5815574372       26.7242627195
H                57.7901023397       -3.1976099791       24.7333945190
H                56.4188880738       -1.4810490927       25.8154933730
N                60.9752844113       -3.7036418426       21.8363311636
C                61.1689855412       -2.2926342217       21.5704788515
C                59.9332629712       -1.4243020747       21.6633789995
O                58.8526533352       -1.5995250031       21.0253639014
C                61.8516970734       -2.0326463945       20.2043189408
C                63.2810894355       -2.4361763810       20.1269259185
C                63.6967039406       -3.5034723486       19.3463309893
C                64.2361176814       -1.6802067175       20.8065172072
C                65.0392799592       -3.7920843748       19.2084225122
C                65.5799177566       -1.9715188524       20.6916750384
C                65.9885483449       -3.0153642130       19.8715610735
O                67.3059268136       -3.2884171101       19.6643849268
H                60.4507736454       -4.2622419547       21.1762568671
H                61.8584552078       -1.9599942935       22.3534426606
H                61.2497477051       -2.5304425350       19.4438653395
H                61.8060321811       -0.9585105782       20.0126609878
H                62.9531123617       -4.0945345775       18.8258407163
H                63.9092291984       -0.8460906975       21.4148832082
H                65.3599555382       -4.5922044843       18.5628968455
H                66.2960590576       -1.3664474535       21.2293629342
H                67.8269969584       -2.6505737347       20.1715595686
N                60.1403509502       -0.3273838478       22.4922789659
C                59.4736468860        0.9593933550       22.4121652623
C                59.4789219033        1.6766529864       21.0697401849
O                58.5513224831        2.5163324123       20.7640993560
H                61.1067377264       -0.2253960447       22.7634174002
H                58.4261311473        0.8460795538       22.7138975373
H                59.9573669914        1.5865163386       23.1737763503
N                60.3544731483        1.1928412228       20.0853670588
C                59.9971559873        1.4469133781       18.6914813377
C                58.5194822427        1.2508666253       18.3967779938
O                57.9265354750        2.0098992956       17.5859423305
C                60.9128780604        0.5704770994       17.8287820521
C                61.2821952958        1.1125882840       16.4472316893
C                62.4741765519        0.3174770891       15.9132040256
C                60.1110845564        1.0449028682       15.4746413548
H                60.5013158515        0.1966171375       20.2374582813
H                60.2075651986        2.5092882177       18.4748117819
H                61.8399313171        0.4775231202       18.4018567315
H                60.4664136306       -0.4270689401       17.7301491342
H                61.5690301003        2.1656193223       16.5707901723
H                62.7300491317        0.6574316663       14.9154813098
H                63.3257608304        0.4409566733       16.5758455663
H                62.2285246825       -0.7424595757       15.8793718429
H                60.4190951002        1.3785529610       14.4878922661
H                59.7140660415        0.0308168052       15.4237105438
H                59.2976419648        1.6803501515       15.8175404070
N                57.8693817832        0.2197251647       18.9905019267
C                56.3998012901        0.1626994709       18.9475202962
C                55.7403734590        1.4820098296       19.2696913596
O                55.0703835079        2.1625559177       18.3987184348
C                55.9014430364       -0.9097952329       19.9093935035
C                54.4026456314       -0.8859060353       19.9918657139
C                53.6043133983       -0.9171432979       18.8531661744
C                53.7764716901       -0.9036998814       21.2354940176
C                52.2243598037       -0.9433294409       18.9507067196
C                52.3988731780       -0.9415527330       21.3384465567
C                51.6160259160       -0.9577316305       20.1984520277
H                58.2792019418       -0.2263702504       19.8135501560
H                56.1240447137       -0.1068588909       17.9077059285
H                56.2477808170       -1.9040112927       19.5871704862
H                56.3431577355       -0.7230116966       20.8927431435
H                54.0622531434       -0.9289631681       17.8667624295
H                54.3967967330       -0.8892910936       22.1190576299
H                51.6387847647       -0.9797546216       18.0394124610
H                51.9422069726       -0.9716207691       22.3144063048
H                50.5410658574       -1.0052922929       20.2710973433
N                56.0114537407        1.9968597512       20.5294896417
C                55.3811900155        3.2846693908       20.7740317024
C                55.7426768365        4.3174207755       19.7184778820
O                54.9035686568        5.1479738725       19.3318735390
C                55.6563560329        3.8203917120       22.1975059799
C                54.4153817446        4.5452146994       22.7353142123
C                56.8515048018        4.7667324528       22.2335204848
C                53.3376577481        3.5975183440       23.2442520171
H                57.0527957223        2.1032543305       20.6847055993
H                54.2981522248        3.1081985911       20.6706694543
H                55.8836076192        2.9515282038       22.8268747067
H                54.7337877682        5.2026484800       23.5464204116
H                54.0251523365        5.1684402350       21.9273229169
H                57.0727434013        5.0682984182       23.2545117936
H                57.7407976686        4.2924869842       21.8295051479
H                56.6447345515        5.6491824453       21.6315234234
H                52.4926707392        4.1680107869       23.6169780784
H                52.9986094230        2.9427554406       22.4440805212
H                53.7402050500        2.9733802391       24.0375326643
N                57.0077906045        4.3710103657       19.2830669890
C                57.3759100376        5.3696415895       18.3105290702
C                56.3343447159        5.4454938890       17.2111985321
O                55.8707428662        6.5132593918       16.7891233331
C                58.7086117169        5.0766872644       17.6302083206
C                59.1571332107        6.2672030088       16.7850076308
C                60.5456624389        6.0338063621       16.2234391505
O                61.5344850969        5.8974533249       16.9351498159
N                60.6233534454        5.9738671923       14.8896762073
H                57.6651951281        3.6535729346       19.5532241647
H                57.4049725849        6.3570430453       18.8113284750
H                59.4582065420        4.8456844218       18.3827093210
H                58.5867070825        4.1854190979       17.0090941177
H                58.4267522350        6.4573169595       15.9956397956
H                59.1887211431        7.1621642597       17.4142275601
H                59.8071468174        6.1618545948       14.3327596225
H                61.5250201172        5.8325640199       14.4579782659
N                56.0864820409        4.2539935529       16.6300039095
C                55.2082826015        4.1604221957       15.5043294049
C                53.8043634259        4.6740827890       15.7884574331
O                53.1311915518        5.1529535059       14.8642193407
C                55.1403024204        2.7067051725       15.0265614777
O                54.3969011614        1.8763667267       15.8658252632
H                56.2812018701        3.4065379037       17.1452416525
H                55.6230047556        4.7808415546       14.6926147705
H                54.6526810299        2.6639435023       14.0432724853
H                56.1778265547        2.3443745817       14.9109012941
H                54.7406691064        1.9439913273       16.8000016617
N                53.3678221772        4.5525546828       17.0384976983
C                52.0624030449        5.0041573475       17.4678554105
C                52.0563034107        6.5274998564       17.6189050193
O                51.1279150747        7.2308840135       17.2182533554
C                51.6417896204        4.3049243016       18.7693101047
C                50.2235366045        4.7360108707       19.1340890472
C                51.7183849365        2.7867769085       18.6133529175
H                53.9898538529        4.1879907331       17.7489670890
H                51.3517591570        4.7595735320       16.6673300051
H                52.3401955437        4.6265532232       19.5495791717
H                49.9355139169        4.2999374419       20.0846763678
H                50.1602779152        5.8189072716       19.1903690791
H                49.5311399791        4.4026575619       18.3629131174
H                51.3047728281        2.3013423533       19.4930913568
H                51.1601276802        2.4641274951       17.7347460504
H                52.7408159757        2.4451881324       18.4715138695
N                53.0958726713        7.0383390100       18.2857193725
C                53.3209118807        8.4689072626       18.2970953185
C                53.2121992961        9.0025065450       16.8692500959
O                52.5252823281        9.9838904656       16.5849687505
C                54.6746351415        8.7842451284       18.9516489950
C                54.6335354610        8.3842559116       20.4332526145
C                55.0183233032       10.2576012849       18.7578914532
C                55.9861875147        8.5081488984       21.1237058751
H                53.8855967799        6.4395333518       18.4941778824
H                52.5073088988        8.9400273893       18.8679830229
H                55.4357118981        8.1903037041       18.4300304474
H                53.9017968475        9.0086016774       20.9474375523
H                54.3051098350        7.3455002988       20.4923469695
H                56.0081162775       10.4660175827       19.1530697025
H                55.0424456201       10.4954281789       17.6943017696
H                54.2813148841       10.8937579823       19.2400983072
H                55.9337684072        8.0772593140       22.1188540745
H                56.7485414111        7.9771634168       20.5551777124
H                56.2993391142        9.5445547922       21.2026654845
N                53.8684456653        8.2991436583       15.9425569358
C                53.8185308620        8.7177763532       14.5652994739
C                52.3928988224        8.6538670556       14.0457785737
O                51.9256946881        9.5494732891       13.3275681757
C                54.7432849932        7.8867588492       13.6952967232
C                56.2544703438        8.2151040995       13.9965313988
O                56.5153284836        9.4015883634       14.2439660347
O                57.0530545274        7.2636253934       13.9107816462
H                54.5387769441        7.5844519432       16.1926161605
H                54.1601530564        9.7657496204       14.4906422193
H                54.5556424442        6.8190092807       13.8230400633
H                54.5718957630        8.1421526043       12.6436015608
N                51.6540495460        7.6005198721       14.4474287917
C                50.2888938585        7.4561352846       13.9862516674
C                49.5065077407        8.7181884571       14.3400091952
O                48.6786685667        9.2151420997       13.5747146117
C                49.6605794211        6.2306683551       14.6584271286
C                48.2106609614        6.0525735569       14.3182518627
C                47.8321586420        5.2793762254       13.2278969860
C                47.2228998448        6.6445499784       15.0970076596
C                46.4938352625        5.1019266502       12.9187807476
C                45.8863712622        6.4621352185       14.7952817967
C                45.5191777876        5.6873722398       13.7088506442
H                52.1356428951        6.7543063004       14.7340759910
H                50.2504968188        7.3320634834       12.8874804050
H                50.2440215627        5.3636892887       14.3293971737
H                49.7799159787        6.3549000553       15.7364287042
H                48.5998904603        4.8065098797       12.6173448703
H                47.5160150014        7.2417213344       15.9473723149
H                46.2300117908        4.5231710479       12.0422004766
H                45.1291531866        6.9280861697       15.4043707971
H                44.4802463890        5.5390899639       13.4609163931
N                51.5100097694        0.2177626451        9.4469618597
C                52.7579917916        0.3043925786       10.1822505238
C                52.6358515932        0.0727445108       11.6762836088
O                53.4609686484       -0.6879486985       12.2289018057
C                53.5214520416        1.6049733346        9.9135555232
C                54.8454255657        1.6755736760       10.7002243583
C                55.8013652643        0.4898429148       10.4722376272
C                57.1062565519        0.6442027895       11.2628710299
N                57.9363419946       -0.5928854907       11.2167459707
H                50.9751188981        1.0658747660        9.3271031152
H                53.3487486344       -0.5444860529        9.7943218457
H                53.6936398128        1.7052883759        8.8372962430
H                52.8610552266        2.4392800884       10.1984069415
H                55.3242330425        2.6192105006       10.4291773532
H                54.5887588612        1.7420632904       11.7643938588
H                55.2913356944       -0.4122492793       10.8126822530
H                55.9996351188        0.4014063719        9.4047135283
H                57.6995387571        1.4667349157       10.8557860578
H                56.8526137410        0.8691669463       12.3004401970
H                58.7666695366       -0.4761791099       11.8154114117
H                57.4612182700       -1.4544162051       11.5648587671
H                58.2115897684       -0.8190896265       10.2496196662
N                51.7073851231        0.6940874453       12.4340292319
C                51.7952631022        0.4266558635       13.8558525212
C                51.6717776556       -1.0688036437       14.1059485363
O                52.3359436681       -1.6193912185       14.9918702094
C                50.8611549803        1.2229517652       14.7715951039
C                49.3894337981        0.8272573266       14.6745893955
C                51.0820953584        2.7009900945       14.5065814549
C                48.4664833535        1.7062706708       15.5133488144
H                51.0406070295        1.3384484431       12.0488404640
H                52.8236237392        0.6966626851       14.1684660792
H                51.2112768175        1.0165008460       15.7960921476
H                49.0747307746        0.8919361166       13.6320735244
H                49.2913811385       -0.2202933114       14.9762042677
H                50.5597009153        3.3238158478       15.2295151724
H                52.1411359973        2.9512833099       14.5606602862
H                50.7397468343        3.0062534912       13.5105006960
H                47.4658184851        1.2836231253       15.5080015844
H                48.8555965361        1.8011380994       16.5237995683
H                48.3926267225        2.7055811042       15.0770150988
N                55.0907241895       -2.5730052418       13.2616860794
C                56.0222906586       -2.2354957687       14.3108119916
C                55.9148153914       -3.1789869950       15.5004983756
O                56.9164912215       -3.7296185430       16.0004138328
C                55.8452811795       -0.7888730577       14.7809704086
O                57.0980034140       -0.3336729825       15.2495923631
H                54.3642676608       -1.9029361436       13.0346796044
H                57.0438731851       -2.3343380366       13.9083179225
H                55.5130339354       -0.1636007995       13.9385239190
H                55.0720784975       -0.7245342349       15.5574290748
H                56.9857041671        0.3909268978       15.8789225032
N                54.6795762851       -3.3728162890       15.9864303197
C                54.4370871816       -4.2636657458       17.1029728534
C                55.0204998827       -5.6382852231       16.8054486454
O                55.7110604322       -6.2504109232       17.6391353611
C                52.9282725423       -4.3229246365       17.3590814078
C                52.4749793973       -5.3816009962       18.3677141290
C                52.9591745333       -5.0658868668       19.7792835745
C                50.9526627990       -5.4923798382       18.3440800211
H                53.8914334432       -2.8732048296       15.5990747035
H                54.9697663848       -3.8748086644       17.9889280886
H                52.6209756499       -3.3300261031       17.6981335753
H                52.4509515978       -4.5110400548       16.3947387452
H                52.8953617022       -6.3434098113       18.0575190956
H                52.5987746113       -5.8180548209       20.4755800442
H                54.0455236447       -5.0497925632       19.8145717800
H                52.6065682315       -4.0851744869       20.0942775488
H                50.6207606565       -6.2904562893       19.0023933423
H                50.5107072068       -4.5550479825       18.6713426581
H                50.6003646333       -5.6965677134       17.3355604947
N                59.0008243388       -5.8898182048       16.3210975521
C                59.8442376074       -5.3821398958       17.3678560360
C                59.4975486135       -5.8929441349       18.7585282513
O                60.3239332788       -5.7909974998       19.6704024294
C                59.7933734232       -3.8498150244       17.4051524202
C                60.4645072606       -3.2628292485       16.1848826056
O                61.6805686008       -3.2604413186       16.0355643865
N                59.6186302255       -2.8115983271       15.2443006692
H                58.1940358145       -5.3219566535       16.0943309708
H                60.8791329082       -5.6937461489       17.1598879273
H                58.7554401872       -3.5233053958       17.4854017644
H                60.3299269188       -3.5095188119       18.2918535272
H                59.9828201346       -2.3657783796       14.4187490164
H                58.6245687253       -2.8029827734       15.4199222237
N                58.3062211492       -6.4905865070       18.8988115285
C                57.8789495114       -7.0469260946       20.1630868740
C                57.4685961835       -8.5003784678       19.9577709255
O                58.0221185387       -9.4025860703       20.5744143006
C                56.7460065422       -6.2419810763       20.8287907615
C                57.2695378869       -4.8576628619       21.2279663158
C                56.1975094552       -6.9979770861       22.0344067753
C                56.2461099862       -3.9637872896       21.9195741571
H                57.5890631813       -6.3527118584       18.1956894778
H                58.7609307675       -7.0528279658       20.8150281558
H                55.9578786749       -6.1154365576       20.0778577915
H                58.1375220904       -4.9625109572       21.8869450547
H                57.6286249487       -4.3335169778       20.3326130118
H                55.3344133986       -6.4758128627       22.4323824418
H                55.8972910920       -7.9990850689       21.7428508977
H                56.9609543194       -7.0603728818       22.8043909235
H                56.6970740831       -2.9868329640       22.0861255734
H                55.3698135044       -3.8061568972       21.2935283852
H                55.9408799035       -4.3748067247       22.8765685627
N                73.3290495966        8.5336913489       24.2342102815
C                73.4945751338        7.1523041696       23.7832377958
C                74.7801804947        7.0794425106       22.9890646077
O                75.0044248185        7.8254309507       22.0165884357
C                72.2092530746        6.6988507807       23.0492800015
C                72.2232859771        5.1890295134       22.7967255994
C                71.9926892965        7.4805298483       21.7576379292
C                70.8244206108        4.6225814036       22.5635550996
H                73.8538511748        9.2141427947       23.7003066212
H                73.5969864110        6.5175017025       24.6707718115
H                71.3914278731        6.9070399684       23.7521935057
H                72.8738589881        4.9481019737       21.9485117517
H                72.6611976993        4.6655062559       23.6517739425
H                71.1171431848        7.0907343656       21.2452989417
H                71.9312207370        8.5396455178       21.9876884245
H                72.8487944492        7.3402021322       21.1008735490
H                70.8617094987        3.5405750438       22.6637073917
H                70.1286790184        4.9987672389       23.3096573350
H                70.4549372060        4.8586111580       21.5698200565
N                46.3910354856       -6.9561267957       19.8691146125
C                46.2441294983       -5.5165253796       19.8788770530
C                44.8293268094       -5.1169802587       20.3055273398
O                44.6291527167       -4.2874958108       21.1851003646
C                46.5480278276       -4.9447953683       18.4895710465
C                46.4589044314       -3.4466607837       18.4774024540
C                47.5416418009       -2.6764945946       18.8823798002
C                45.2957081062       -2.8050309405       18.0732022761
C                47.4676209294       -1.2966526439       18.8736235448
C                45.2158879442       -1.4238680561       18.0692991594
C                46.3037251461       -0.6668124321       18.4681520431
H                46.7804849449       -7.3751381516       19.0332296147
H                46.9340891412       -5.0754660612       20.6143484281
H                47.5533401994       -5.2616759707       18.2015539265
H                45.8407107596       -5.3649295293       17.7713899538
H                48.4557308418       -3.1664612946       19.1860323522
H                44.4522035689       -3.3952474499       17.7390069433
H                48.3235483988       -0.7088214682       19.1702849830
H                44.3065103695       -0.9394531337       17.7428920552
H                46.2488548192        0.4100737484       18.4552324439
H                61.6865451035       12.9882507696       17.9382421129
H                65.1496709518       -2.5748894765       26.2107673755
H                61.7755512300       -4.1120366343       21.8891204907
H                49.6581366907        9.1705994057       15.2188339759
