 432 
 
N                32.7492564589        0.2464002849      -14.2798291085
C                32.8682363686        0.8601469154      -12.9298584615
C                33.6830514570        0.0475922955      -11.8590493745
O                33.4077223584        0.1291115643      -10.6694552368
C                31.5695129708        1.3087364530      -12.2363719882
C                31.8817040315        2.1950521617      -11.0123923327
O                32.8789420247        2.9028976878      -10.9410850718
N                30.9224343041        2.2110332750      -10.0783323092
H                31.8838724972       -0.2302146726      -14.4857011882
H                33.4908376873        1.7596646661      -13.0606409847
H                30.9644187595        1.9089676513      -12.9193589513
H                30.9989499244        0.4420856202      -11.9039506097
H                31.0460502281        2.8090017387       -9.2770972835
H                30.0894265590        1.6505003427      -10.1389559626
N                34.6925412400       -0.6607246129      -12.4247709972
C                36.0075822838       -0.9782307192      -11.8932288390
C                36.8730959605        0.3093940585      -11.8574347933
O                37.6997375015        0.4863546693      -10.9737006657
C                36.6738205600       -2.0638244402      -12.7722400102
C                37.8297116991       -2.6717788727      -11.9917632883
C                35.7100250266       -3.1668679204      -13.1972774728
H                34.7274330647       -0.5909867794      -13.4315476311
H                35.9086158329       -1.3192895592      -10.8580067052
H                37.0586380344       -1.5587726128      -13.6650663260
H                38.4065956142       -3.3374343640      -12.6265765168
H                38.4910143977       -1.8911170645      -11.6189025941
H                37.4576122034       -3.2331354202      -11.1396245996
H                36.2584449870       -3.9167530192      -13.7568127595
H                35.2751794490       -3.6378166588      -12.3184452988
H                34.9019603213       -2.7874121676      -13.8141308911
N                36.6540470940        1.1936261662      -12.8418934163
C                37.2904713481        2.4972022663      -12.9843238299
C                37.4039666282        3.2561779643      -11.6828437417
O                38.4848674636        3.6773159923      -11.2985478280
C                36.4793704359        3.4113552596      -13.9032162880
C                36.9814583200        4.8600863187      -13.8623516501
C                38.2901263408        4.9807214982      -14.6477740783
C                35.8722459244        5.7706625791      -14.3852917741
H                35.9978248978        0.9944677722      -13.5984381079
H                38.3118526585        2.3629501858      -13.3650333917
H                36.5068337130        3.0312622496      -14.9261748769
H                35.4411071817        3.3874386622      -13.5661654629
H                37.1766926064        5.1596500158      -12.8326610638
H                38.5428297292        6.0254238765      -14.8045325136
H                39.0998049518        4.5162748731      -14.0925490482
H                38.1965601867        4.4983717676      -15.6174138722
H                36.2109633618        6.8018631856      -14.4367987705
H                35.5697969217        5.4585809640      -15.3843451360
H                35.0063663176        5.7271698779      -13.7308936288
N                36.2595389818        3.5688759422      -11.0626642682
C                36.4197311903        4.1528682700       -9.7607854606
C                37.4918614452        3.3558035356       -8.9933239333
O                38.4990327285        3.8923637401       -8.5470825162
C                35.1683640995        4.1244153111       -8.9089596166
C                35.7273956672        4.3466638054       -7.4284784245
O                35.9189520659        3.3313898100       -6.7258820857
O                35.9765934710        5.5277829329       -7.1244396802
H                35.3578075316        3.1841483771      -11.3030479979
H                36.7935483765        5.1817025330       -9.8450369018
H                34.4849700611        4.9288214302       -9.1737048401
H                34.6593582378        3.1629351856       -8.9719220706
N                37.2379381745        2.0373788544       -8.8805690747
C                37.9957317349        1.2340441485       -7.9248667461
C                39.4539477277        1.5606476052       -8.2149904795
O                40.2272222361        1.8655193726       -7.3141387754
C                37.5867142186       -0.2332493780       -8.0528100595
C                38.1523721169       -1.2095736686       -7.0201026018
C                37.5983094446       -0.9651908964       -5.6086043896
C                37.8530401276       -2.6371731372       -7.5040877212
H                36.2895333178        1.7337393793       -9.0538697312
H                37.7764140902        1.6121935051       -6.9130846779
H                36.4923022514       -0.2544728062       -7.9870472064
H                37.8709877926       -0.5624951031       -9.0516983787
H                39.2394231780       -1.0686007582       -6.9840376397
H                38.0368418848       -1.6714440703       -4.9098936996
H                37.8301125988        0.0422293126       -5.2742536071
H                36.5176109910       -1.0885009608       -5.5990299589
H                38.2686852653       -3.3589229828       -6.8053884308
H                36.7805284758       -2.7926419855       -7.5709894769
H                38.3011142355       -2.7985219287       -8.4800568318
N                39.8598731491        1.5121832624       -9.4817425283
C                41.2033486966        1.9253948005       -9.8040381074
C                41.5290064293        3.3729907065       -9.4311572292
O                42.5858939669        3.6113154407       -8.8461378973
C                41.4942465506        1.7265493959      -11.2745737389
H                39.1881067855        1.3275502134      -10.2161451458
H                41.8899370438        1.3182018534       -9.1951068181
H                42.5274461094        1.9687887903      -11.4893872396
H                41.3156253187        0.6897576536      -11.5503152471
H                40.8441073348        2.3691707638      -11.8657156337
N                40.7512805193        4.3640491321       -9.8444171129
C                41.1431510218        5.7026158615       -9.4888512602
C                41.3426685745        5.8680817658       -8.0060646267
O                42.1442321636        6.6957031402       -7.5762127572
C                40.1245881080        6.7532689538       -9.8796197498
C                40.0582541974        6.8383496534      -11.4013444159
C                40.5309941399        8.1083593034       -9.2937487736
C                38.7716501009        7.4744470448      -11.9226865249
H                39.8329450234        4.1963636752      -10.2316131327
H                42.1069977409        5.9253684983       -9.9706042344
H                39.1512848758        6.4514106601       -9.4726507407
H                40.8897473229        7.4491149383      -11.7269635788
H                40.1485813209        5.8367624464      -11.8235299528
H                39.9741334199        8.9055221125       -9.7846895599
H                40.3214702783        8.1673391648       -8.2306205765
H                41.5909522825        8.2790187491       -9.4498745076
H                38.7822591151        7.4618859571      -13.0098211135
H                37.8956755487        6.9379759958      -11.5692523184
H                38.6961613326        8.5095495429      -11.6002557009
N                40.5290795934        5.1238780559       -7.2574445299
C                40.7733001615        4.9648644824       -5.8391769376
C                42.2620440856        4.4924304076       -5.6683934089
O                43.1466767288        5.3327328150       -5.4796286991
C                39.6850108064        4.1103594803       -5.2016397343
H                39.8910078810        4.4732331932       -7.6875999682
H                40.7766432021        5.9693375779       -5.3811505247
H                39.8419734296        4.0360180512       -4.1291564094
H                38.7187395953        4.5695753456       -5.3971803356
H                39.6837259416        3.1184460551       -5.6421724648
N                42.5738033575        3.1944257249       -5.7325248783
C                43.9242672702        2.7522140688       -5.3948895192
C                44.9619337582        3.7546388785       -5.9739596865
O                45.7602689351        4.2868572708       -5.2091223861
C                44.0910360028        1.2284947733       -5.6575339348
C                44.8538731512        0.9711892870       -6.9569156576
C                44.6792494641        0.4462617305       -4.4422299931
H                41.8844748956        2.5300773657       -6.0655249984
H                44.0314628868        2.9089070024       -4.3072093158
H                43.0730347368        0.8451359578       -5.7973167155
H                44.9506652940       -0.0949667805       -7.1416333279
H                44.3192305636        1.4199263109       -7.7900498060
H                45.8498609238        1.4060092643       -6.9150038155
H                44.7019391008       -0.6086847998       -4.6918657905
H                45.6894573137        0.7861842838       -4.2293526915
H                44.0549619311        0.5996089541       -3.5690634887
N                44.9944185799        4.0040597753       -7.2757418839
C                46.0358680121        4.8377851570       -7.8266512737
C                46.2406415891        6.1961181441       -7.1815308079
O                47.3846659524        6.6237567435       -7.0218253717
C                45.7585588296        5.1940230714       -9.2838512047
C                46.8263410685        6.1848616457       -9.7635558278
C                45.7270504131        3.9486253184      -10.1600374317
H                44.2176508097        3.7433722494       -7.8705104643
H                46.9978668899        4.3095464033       -7.7520059575
H                44.7733552060        5.6751274495       -9.3329139511
H                46.8037069975        6.2698327576      -10.8501967128
H                46.6750731914        7.1823425256       -9.3647183054
H                47.8146824466        5.8416350277       -9.4670888762
H                45.5924619248        4.2321474796      -11.1985241396
H                46.6559373507        3.3917118416      -10.0634355907
H                44.9003614087        3.3050296703       -9.8685596184
N                45.1073578860        6.9081529349       -6.9802975073
C                45.1113537528        8.2873332664       -6.5407967890
C                45.0801991474        8.4581810860       -5.0288310143
O                45.4638322097        9.4817364710       -4.4683176286
C                43.9844906279        9.0963341368       -7.1432927362
C                44.2095157588        9.3195842112       -8.6304935531
S                45.8659149743        9.9319592640       -9.2505943213
C                45.8826497675       11.6359067579       -8.6105338910
H                44.2021568740        6.4728141358       -7.0978908063
H                46.0698875546        8.7180295462       -6.8825109730
H                43.0445797431        8.5640998829       -7.0264038004
H                43.9273423553       10.0527023206       -6.6155337089
H                44.1118900794        8.3699845404       -9.1557433328
H                43.4678706081       10.0139395031       -9.0272769605
H                46.8579014124       12.0415261444       -8.8385617677
H                45.0895023162       12.1964102524       -9.0889262391
H                45.7423048455       11.5835850145       -7.5377648473
N                44.6376787463        7.3730178121       -4.3995961390
C                44.7278341022        7.1964460618       -2.9704354531
C                46.1861482860        7.1765621595       -2.5587469829
O                46.5721960623        7.9936495449       -1.7322803105
H                44.2724547505        6.6035305557       -4.9454002581
H                44.2386687253        8.0344687430       -2.4551946080
H                44.2171005541        6.2682505839       -2.7100268251
N                46.9204144603        6.2621182750       -3.2030103719
C                48.3665551117        6.1753446065       -3.2285236028
C                49.0490456381        7.5050136768       -3.2654301152
O                49.9153964360        7.8191810318       -2.4683620910
C                48.8787262152        5.5519967061       -4.5194242441
H                46.4521245768        5.6099197748       -3.8297498808
H                48.7160498443        5.6102415182       -2.3544585162
H                49.9615520824        5.6398021677       -4.5541248153
H                48.6306345971        4.4850543216       -4.5512878609
H                48.4575006817        5.9938280632       -5.4126213193
N                48.6529818307        8.2258665370       -4.3115290379
C                49.2472213442        9.4795035460       -4.7349665789
C                49.2521898084       10.4957922889       -3.6030155490
O                50.2146734813       11.2092119498       -3.3538753400
C                48.4402676120       10.0737188188       -5.8781334410
H                47.9812521281        7.8303233487       -4.9541293917
H                50.2876344002        9.3029827384       -5.0458010302
H                48.8999513676       10.9922494229       -6.2312701475
H                48.3959464464        9.3657803465       -6.7073560318
H                47.4283332519       10.3000922192       -5.5524341668
N                48.0525413100       10.4988557893       -2.9985580356
C                47.6259995698       11.3106745516       -1.8623576250
C                48.5241057839       10.9671516841       -0.6635291491
O                49.1762107102       11.8171051072       -0.0679326343
C                46.1065774119       11.1124730087       -1.5761205299
C                45.7079382109       12.0691053292       -0.4834569112
C                46.1758160491       13.3783027944       -0.5060456835
C                45.0156133183       11.6397377013        0.6334726975
C                46.0544273222       14.2045158237        0.5876973968
C                44.8760326050       12.4736690122        1.7277402155
C                45.4154578390       13.7380989913        1.7140304353
H                47.3376853236        9.8796865782       -3.3610212395
H                47.8276375641       12.3600605419       -2.1068724802
H                45.5609113057       11.2897152441       -2.5034566407
H                45.9327796448       10.0837201929       -1.2679425410
H                46.6236509135       13.7643835816       -1.4066849113
H                44.6385105969       10.6263121228        0.6716313859
H                46.4360841522       15.2139307776        0.5561270867
H                44.3548564027       12.1353279428        2.6083811268
H                45.2622340880       14.3980025180        2.5529589425
N                48.5533177496        9.6615238505       -0.3744345439
C                49.2816646131        9.1978971955        0.7687224627
C                50.7190026842        9.7314472271        0.6977405938
O                51.2199027588       10.2679266857        1.6879749881
C                49.1381564690        7.7035280170        0.9271659456
C                49.6402253909        7.3411327562        2.3018096931
O                49.0731422735        7.6901589151        3.3182863295
N                50.7845661470        6.6375740042        2.2960036069
H                47.9561924509        9.0109815135       -0.8778294824
H                48.8680662988        9.6735354832        1.6778404748
H                48.0777709803        7.4573645588        0.8556150987
H                49.6789167090        7.1874892631        0.1325239852
H                51.2019690714        6.3814864136        3.1784110898
H                51.2322676205        6.3431244695        1.4472948832
N                37.2379381745        8.8805690747        2.0373788544
C                37.9957317349        7.9248667461        1.2340441485
C                39.4539477277        8.2149904795        1.5606476052
O                40.2272222361        7.3141387754        1.8655193726
C                37.5867142186        8.0528100595       -0.2332493780
C                38.1523721169        7.0201026018       -1.2095736686
C                37.5983094446        5.6086043896       -0.9651908964
C                37.8530401276        7.5040877212       -2.6371731372
H                36.2895333178        9.0538697312        1.7337393793
H                37.7764140902        6.9130846779        1.6121935051
H                36.4923022514        7.9870472064       -0.2544728062
H                37.8709877926        9.0516983787       -0.5624951031
H                39.2394231780        6.9840376397       -1.0686007582
H                38.0368418848        4.9098936996       -1.6714440703
H                37.8301125988        5.2742536071        0.0422293126
H                36.5176109910        5.5990299589       -1.0885009608
H                38.2686852653        6.8053884308       -3.3589229828
H                36.7805284758        7.5709894769       -2.7926419855
H                38.3011142355        8.4800568318       -2.7985219287
N                42.5738033575        5.7325248783        3.1944257249
C                43.9242672702        5.3948895192        2.7522140688
C                44.9619337582        5.9739596865        3.7546388785
O                45.7602689351        5.2091223861        4.2868572708
C                44.0910360028        5.6575339348        1.2284947733
C                44.8538731512        6.9569156576        0.9711892870
C                44.6792494641        4.4422299931        0.4462617305
H                41.8844748956        6.0655249984        2.5300773657
H                44.0314628868        4.3072093158        2.9089070024
H                43.0730347368        5.7973167155        0.8451359578
H                44.9506652940        7.1416333279       -0.0949667805
H                44.3192305636        7.7900498060        1.4199263109
H                45.8498609238        6.9150038155        1.4060092643
H                44.7019391008        4.6918657905       -0.6086847998
H                45.6894573137        4.2293526915        0.7861842838
H                44.0549619311        3.5690634887        0.5996089541
N                40.5290795934       -7.2574445299       -5.1238780559
C                40.7733001615       -5.8391769376       -4.9648644824
C                42.2620440856       -5.6683934089       -4.4924304076
O                43.1466767288       -5.4796286991       -5.3327328150
C                39.6850108064       -5.2016397343       -4.1103594803
H                39.8910078810       -7.6875999682       -4.4732331932
H                40.7766432021       -5.3811505247       -5.9693375779
H                39.8419734296       -4.1291564094       -4.0360180512
H                38.7187395953       -5.3971803356       -4.5695753456
H                39.6837259416       -5.6421724648       -3.1184460551
N                44.6376787463       -4.3995961390       -7.3730178121
C                44.7278341022       -2.9704354531       -7.1964460618
C                46.1861482860       -2.5587469829       -7.1765621595
O                46.5721960623       -1.7322803105       -7.9936495449
H                44.2724547505       -4.9454002581       -6.6035305557
H                44.2386687253       -2.4551946080       -8.0344687430
H                44.2171005541       -2.7100268251       -6.2682505839
N                46.9204144603       -3.2030103719       -6.2621182750
C                48.3665551117       -3.2285236028       -6.1753446065
C                49.0490456381       -3.2654301152       -7.5050136768
O                49.9153964360       -2.4683620910       -7.8191810318
C                48.8787262152       -4.5194242441       -5.5519967061
H                46.4521245768       -3.8297498808       -5.6099197748
H                48.7160498443       -2.3544585162       -5.6102415182
H                49.9615520824       -4.5541248153       -5.6398021677
H                48.6306345971       -4.5512878609       -4.4850543216
H                48.4575006817       -5.4126213193       -5.9938280632
N                48.0525413100       -2.9985580356      -10.4988557893
C                47.6259995698       -1.8623576250      -11.3106745516
C                48.5241057839       -0.6635291491      -10.9671516841
O                49.1762107102       -0.0679326343      -11.8171051072
C                46.1065774119       -1.5761205299      -11.1124730087
C                45.7079382109       -0.4834569112      -12.0691053292
C                46.1758160491       -0.5060456835      -13.3783027944
C                45.0156133183        0.6334726975      -11.6397377013
C                46.0544273222        0.5876973968      -14.2045158237
C                44.8760326050        1.7277402155      -12.4736690122
C                45.4154578390        1.7140304353      -13.7380989913
H                47.3376853236       -3.3610212395       -9.8796865782
H                47.8276375641       -2.1068724802      -12.3600605419
H                45.5609113057       -2.5034566407      -11.2897152441
H                45.9327796448       -1.2679425410      -10.0837201929
H                46.6236509135       -1.4066849113      -13.7643835816
H                44.6385105969        0.6716313859      -10.6263121228
H                46.4360841522        0.5561270867      -15.2139307776
H                44.3548564027        2.6083811268      -12.1353279428
H                45.2622340880        2.5529589425      -14.3980025180
N                48.5533177496       -0.3744345439       -9.6615238505
C                49.2816646131        0.7687224627       -9.1978971955
C                50.7190026842        0.6977405938       -9.7314472271
O                51.2199027588        1.6879749881      -10.2679266857
C                49.1381564690        0.9271659456       -7.7035280170
C                49.6402253909        2.3018096931       -7.3411327562
O                49.0731422735        3.3182863295       -7.6901589151
N                50.7845661470        2.2960036069       -6.6375740042
H                47.9561924509       -0.8778294824       -9.0109815135
H                48.8680662988        1.6778404748       -9.6735354832
H                48.0777709803        0.8556150987       -7.4573645588
H                49.6789167090        0.1325239852       -7.1874892631
H                51.2019690714        3.1784110898       -6.3814864136
H                51.2322676205        1.4472948832       -6.3431244695
N                50.5780309610        1.8333410616      -13.6297122510
C                50.5635237752        3.2836614817      -13.6029751719
C                51.9485526777        3.8666544273      -13.3786320495
O                52.4454824353        4.7047902078      -14.1259385679
C                49.7156326050        3.9364340925      -12.5156939517
C                48.2236642134        3.6365186053      -12.7507323119
C                50.0022587824        5.4415330216      -12.4878483483
C                47.7468378759        3.9327122980      -14.1488216004
H                49.9669620151        1.3233302668      -13.0036200758
H                50.2433795154        3.6542566204      -14.5881588973
H                49.9993124417        3.5127612938      -11.5473717309
H                48.0278525020        2.5852566121      -12.5223631904
H                47.6619226773        4.2372199993      -12.0378590237
H                49.2490779930        5.9586708290      -11.8963702762
H                50.9679268833        5.6532949662      -12.0427096543
H                49.9916341818        5.8605535201      -13.4920999824
H                46.6646601187        3.9190017284      -14.1770438612
H                48.0625458358        4.9285673030      -14.4625753999
H                48.1093580804        3.2087134150      -14.8735443455
N                51.4927344662       14.4457926030       -7.6225909536
C                50.0811419111       14.0352918912       -7.4873287781
C                49.3900054355       14.2529013061       -8.8278710435
O                48.5302542273       13.5139057659       -9.2977226480
C                49.2535683437       14.8457002784       -6.4500306904
C                47.8627726240       14.2792185567       -6.2575073718
C                47.5252881852       13.6409840354       -5.0790891875
C                46.8713427282       14.4142507346       -7.2086020008
C                46.2408100993       13.1928068519       -4.8366724711
C                45.5998701112       13.9285346436       -6.9831941201
C                45.2599285106       13.3260742524       -5.7905790512
H                51.9901537572       14.7727237807       -6.7965492399
H                50.0420241117       12.9718520383       -7.2154030009
H                49.7987047102       14.8033563715       -5.5024437204
H                49.2020233384       15.8797804826       -6.7821684358
H                48.2977169004       13.4799748203       -4.3373863065
H                47.0662116362       14.9661110524       -8.1177655464
H                46.0144013126       12.7237274770       -3.8928311948
H                44.8441412478       14.0932579499       -7.7388311897
H                44.2581442550       12.9739367577       -5.6131693498
N                51.0697230437       12.2301878612      -11.9513402764
C                50.5195497080       10.9076092080      -11.7065053041
C                49.0042817556       10.8420054953      -11.9067489344
O                48.4779604757        9.7838843038      -12.2576484468
C                50.7872272552       10.4224856169      -10.2555582768
C                50.5619761725        8.9194901038      -10.1673774766
C                49.8762749890       11.0583064788       -9.2164440918
C                50.7757227389        8.3997615082       -8.7441715550
H                51.4062923148       12.7251645703      -11.1310734181
H                50.9769876117       10.1991988728      -12.4107140421
H                51.8312047317       10.6588749833      -10.0247427494
H                49.5442999818        8.6863301018      -10.4870415677
H                51.2447954647        8.3939491388      -10.8420972696
H                50.3324507650       10.9680425732       -8.2373910804
H                49.7286185537       12.0882970440       -9.4472919395
H                48.9081588425       10.5593953384       -9.2048228279
H                50.7980581257        7.3125898077       -8.7509113139
H                51.7309075520        8.7571591156       -8.3639941685
H                49.9835922784        8.7137672916       -8.0738761355
N                48.3596605159       11.9704228650      -11.5947310610
C                46.9491583482       12.1439306241      -11.8487130046
C                46.7040562558       12.0105659416      -13.3754911354
O                46.0411265242       11.0824232087      -13.8443747502
C                46.4565918914       13.4941221231      -11.3455545353
H                48.8815547338       12.8050826370      -11.3846568211
H                46.4117226280       11.3147709133      -11.3726726662
H                45.3716387837       13.5363279921      -11.4428952739
H                46.7286469627       13.6257610173      -10.3081056539
H                46.8849783822       14.3012638516      -11.9255554212
N                47.1519330304        8.8092670028      -15.2239316767
C                46.0553313892        7.8542698697      -15.0821929114
C                45.2492257751        7.9176980057      -16.3817767480
O                44.8262804926        6.9563087444      -17.0152717074
C                45.1195600395        8.1102582454      -13.8820113765
C                43.9261269782        7.1374670608      -13.9042304033
C                44.3417531997        5.6812339834      -13.8830974953
C                43.0088692242        7.3165685157      -12.7218773962
H                47.2771814578        9.4991754988      -14.4955341774
H                46.4923114925        6.8494028065      -15.0022510825
H                45.7004909575        7.9812375273      -12.9677491351
H                44.7699343616        9.1401159086      -13.9097657376
H                43.3566705194        7.3211128992      -14.8245417429
H                43.4755948568        5.0330751518      -13.7789525451
H                44.8530451740        5.3922627589      -14.8018386170
H                45.0169171077        5.4996320094      -13.0486997805
H                42.2101916041        6.5930582930      -12.8192578848
H                43.5478823800        7.1378308355      -11.7943060749
H                42.6003174932        8.3252647489      -12.6888703306
H                32.8320781415        0.8850308075      -14.9085513242
H                51.2439711745        9.6429146668       -0.1487640252
H                37.1806255399        8.5821395974        2.8845241247
H                39.7962554536        9.1540310229        1.5285808215
H                42.1864506086        5.0062094161        3.5583263945
H                44.9704548466        6.9535686710        3.9553716078
H                40.1832234825       -7.4130829386       -5.9400644539
H                42.4858979070       -5.7129868743       -3.5188283896
H                44.0982857856       -4.5827867048       -8.0697935656
H                48.7990869766       -3.9633737409       -8.1761286915
H                48.3018185347       -3.6755334918      -11.0369683212
H                51.2439711745       -0.1487640252       -9.6429146668
H                50.3488183696        1.5456990962      -14.4511279117
H                52.4953848841        3.5694242220      -12.5959260108
H                51.9805002400       13.7506799934       -7.9207570312
H                49.6292795390       15.0437101076       -9.3912264755
H                51.7708074970       12.1648801136      -12.5118895493
H                47.0874845868       12.6869153452      -14.0044062325
H                47.9338758926        8.3653113031      -15.2622552605
H                45.0237129964        8.8034139046      -16.7875492618
