 232 
 
N                 3.4580000000       47.7460000000       85.1040000000
C                 3.7080000000       47.4370000000       83.7010000000
C                 3.5070000000       48.6540000000       82.8140000000
O                 2.4930000000       49.3620000000       82.9140000000
C                 2.8330000000       46.2670000000       83.2680000000
S                 3.8110000000       44.6670000000       83.3200000000
H                 2.8710000000       47.2410000000       85.4780000000
H                 4.6340000000       47.1710000000       83.5920000000
H                 2.0760000000       46.1880000000       83.8690000000
H                 2.5230000000       46.4120000000       82.3610000000
H                 3.0990000000       43.7880000000       83.7200000000
N                 4.5070000000       48.8760000000       81.9460000000
C                 4.6880000000       50.1210000000       81.2150000000
C                 3.3770000000       50.6540000000       80.6840000000
O                 2.4250000000       49.9090000000       80.4500000000
C                 5.6360000000       49.9590000000       80.0100000000
C                 6.1970000000       51.3000000000       79.5700000000
C                 6.7870000000       49.0400000000       80.3010000000
H                 5.1110000000       48.2930000000       81.7620000000
H                 5.0540000000       50.7440000000       81.8620000000
H                 5.1030000000       49.5700000000       79.2990000000
H                 6.8640000000       51.1520000000       78.8810000000
H                 5.4750000000       51.8440000000       79.2190000000
H                 6.6020000000       51.7390000000       80.3340000000
H                 7.3880000000       49.0350000000       79.5400000000
H                 7.2550000000       49.3590000000       81.0890000000
H                 6.4460000000       48.1460000000       80.4580000000
N                11.9560000000       54.1820000000       86.0960000000
C                12.4210000000       54.1920000000       84.7190000000
C                13.3640000000       55.3630000000       84.4650000000
O                14.3100000000       55.2190000000       83.6780000000
C                11.2140000000       54.1510000000       83.7950000000
C                10.7920000000       52.6790000000       83.5540000000
C                 9.6690000000       52.5420000000       82.5440000000
N                 8.4060000000       52.4720000000       83.2710000000
C                 7.9670000000       51.3790000000       83.8910000000
N                 8.6600000000       50.2370000000       83.8390000000
N                 6.8160000000       51.4180000000       84.5400000000
H                11.1260000000       54.3770000000       86.2110000000
H                12.9420000000       53.4000000000       84.5150000000
H                10.4730000000       54.6270000000       84.2020000000
H                11.4400000000       54.5560000000       82.9430000000
H                11.5560000000       52.1820000000       83.2210000000
H                10.4880000000       52.2970000000       84.3920000000
H                 9.6550000000       53.3120000000       81.9550000000
H                 9.7840000000       51.7300000000       82.0260000000
H                 7.9160000000       53.1780000000       83.3000000000
H                 9.3990000000       50.2030000000       83.4020000000
H                 8.3660000000       49.5370000000       84.2440000000
H                 6.3580000000       52.1460000000       84.5590000000
H                 6.5250000000       50.7170000000       84.9430000000
N                14.0330000000       42.0170000000       92.1420000000
C                14.8630000000       42.1200000000       90.9410000000
C                15.6940000000       40.8430000000       90.6570000000
O                15.8790000000       40.4980000000       89.4930000000
C                15.7580000000       43.3520000000       91.0660000000
H                14.3660000000       42.3610000000       92.8570000000
H                14.2900000000       42.2360000000       90.1670000000
H                16.2660000000       43.4570000000       90.2470000000
H                15.2020000000       44.1330000000       91.2130000000
H                16.3600000000       43.2290000000       91.8170000000
N                17.1610000000       37.6740000000       89.3650000000
C                16.7320000000       36.9110000000       88.2010000000
C                15.9770000000       35.6360000000       88.5850000000
O                16.3150000000       34.9330000000       89.5460000000
C                17.9190000000       36.4680000000       87.3290000000
C                17.3520000000       35.7930000000       86.0230000000
C                18.8760000000       37.5450000000       87.0140000000
H                17.9920000000       37.8950000000       89.3520000000
H                16.1490000000       37.5200000000       87.7210000000
H                18.4440000000       35.8300000000       87.8370000000
H                18.0940000000       35.5140000000       85.4640000000
H                16.8170000000       35.0240000000       86.2720000000
H                16.8040000000       36.4370000000       85.5470000000
H                19.4290000000       37.2670000000       86.2660000000
H                18.3840000000       38.3470000000       86.7810000000
H                19.4320000000       37.7110000000       87.7920000000
N                 7.3530000000       38.0760000000       86.7300000000
C                 7.2210000000       38.8980000000       87.9340000000
C                 5.9460000000       38.5370000000       88.6570000000
O                 5.9840000000       38.0100000000       89.7530000000
C                 7.2420000000       40.3770000000       87.6080000000
S                 8.9230000000       40.9600000000       87.1970000000
H                 7.5950000000       38.4870000000       86.0140000000
H                 7.9870000000       38.7290000000       88.5060000000
H                 6.6670000000       40.5430000000       86.8440000000
H                 6.9260000000       40.8770000000       88.3760000000
N                10.9100000000       44.1200000000       90.4140000000
C                10.8670000000       43.0450000000       89.4260000000
C                10.4390000000       43.5360000000       88.0480000000
O                11.1220000000       43.2880000000       87.0390000000
C                 9.9220000000       41.9370000000       89.8590000000
S                 9.9190000000       40.4390000000       88.7800000000
H                10.4970000000       43.9520000000       91.1490000000
H                11.7690000000       42.6900000000       89.3700000000
H                10.1730000000       41.6520000000       90.7520000000
H                 9.0190000000       42.2910000000       89.8670000000
N                 9.3190000000       44.2450000000       87.9720000000
C                 8.8660000000       44.6610000000       86.6520000000
C                 9.8570000000       45.6390000000       86.0040000000
O                10.3290000000       45.4050000000       84.8900000000
C                 7.4430000000       45.1820000000       86.7370000000
C                 7.0240000000       45.7410000000       85.4530000000
C                 6.5810000000       44.0020000000       87.0470000000
H                 8.8280000000       44.4870000000       88.6350000000
H                 8.8490000000       43.8920000000       86.0610000000
H                 7.3680000000       45.8770000000       87.4100000000
H                 6.1130000000       46.0640000000       85.5320000000
H                 7.6160000000       46.4730000000       85.2200000000
H                 7.0720000000       45.0480000000       84.7760000000
H                 5.6580000000       44.2930000000       87.1100000000
H                 6.6740000000       43.3480000000       86.3370000000
H                 6.8650000000       43.6170000000       87.8910000000
N                10.2730000000       46.6800000000       86.7090000000
C                11.2410000000       47.5770000000       86.0990000000
C                12.4270000000       46.7650000000       85.5820000000
O                12.6260000000       46.6870000000       84.3760000000
C                11.7360000000       48.6610000000       87.0560000000
C                12.8260000000       49.4760000000       86.3650000000
C                10.6040000000       49.5320000000       87.4350000000
H                10.0210000000       46.8800000000       87.5070000000
H                10.7970000000       48.0170000000       85.3570000000
H                12.1040000000       48.2640000000       87.8610000000
H                13.0630000000       50.2290000000       86.9280000000
H                13.6020000000       48.9100000000       86.2250000000
H                12.4900000000       49.7930000000       85.5120000000
H                10.9040000000       50.1680000000       88.1040000000
H                10.2910000000       50.0040000000       86.6480000000
H                 9.8910000000       48.9830000000       87.7970000000
N                13.2040000000       46.1540000000       86.4670000000
C                14.3130000000       45.2930000000       86.1030000000
C                14.1030000000       44.4290000000       84.8790000000
O                14.8210000000       44.6280000000       83.8930000000
C                14.6410000000       44.3000000000       87.2300000000
H                13.1030000000       46.2260000000       87.3180000000
H                15.0290000000       45.9210000000       85.9240000000
H                15.4060000000       43.7650000000       86.9680000000
H                14.8450000000       44.7960000000       88.0380000000
H                13.8730000000       43.7270000000       87.3800000000
N                13.1810000000       43.4310000000       84.9540000000
C                12.8610000000       42.6010000000       83.7900000000
C                12.9040000000       43.4290000000       82.5060000000
O                13.7350000000       43.2130000000       81.6200000000
C                11.4660000000       41.9750000000       83.8440000000
O                11.3470000000       41.0180000000       84.8620000000
H                12.7400000000       43.2280000000       85.6640000000
H                13.5220000000       41.8910000000       83.7900000000
H                10.8180000000       42.6790000000       84.0050000000
H                11.2850000000       41.5460000000       82.9930000000
H                10.6700000000       41.1810000000       85.3320000000
N                12.0010000000       44.4070000000       82.4280000000
C                11.8880000000       45.2390000000       81.2400000000
C                13.2520000000       45.7200000000       80.7720000000
O                13.5570000000       45.6700000000       79.5780000000
C                10.9530000000       46.3930000000       81.5630000000
C                 9.6390000000       45.8620000000       82.1090000000
C                 8.4730000000       46.7220000000       81.7440000000
O                 8.4940000000       47.9260000000       82.0080000000
N                 7.4260000000       46.1140000000       81.1540000000
H                11.4430000000       44.6070000000       83.0500000000
H                11.5090000000       44.7370000000       80.5020000000
H                11.3610000000       46.9650000000       82.2320000000
H                10.7730000000       46.9020000000       80.7570000000
H                 9.4820000000       44.9750000000       81.7490000000
H                 9.6910000000       45.8220000000       83.0770000000
H                 7.4490000000       45.2680000000       81.0040000000
H                 6.7340000000       46.5730000000       80.9280000000
N                14.0990000000       46.1490000000       81.6940000000
C                15.4330000000       46.5590000000       81.3010000000
C                16.2240000000       45.3800000000       80.7610000000
O                16.9730000000       45.5530000000       79.8030000000
C                16.1640000000       47.2200000000       82.4760000000
C                15.4220000000       48.4400000000       83.0370000000
C                16.3410000000       49.1840000000       84.0310000000
C                14.8760000000       49.3260000000       81.8740000000
H                13.9290000000       46.2110000000       82.5350000000
H                15.3620000000       47.2230000000       80.5970000000
H                16.2580000000       46.5720000000       83.1920000000
H                17.0380000000       47.5130000000       82.1770000000
H                14.6370000000       48.1760000000       83.5420000000
H                15.8690000000       49.9550000000       84.3810000000
H                16.5750000000       48.5830000000       84.7550000000
H                17.1430000000       49.4700000000       83.5660000000
H                14.4620000000       50.1190000000       82.2490000000
H                15.6140000000       49.5790000000       81.2970000000
H                14.2220000000       48.8170000000       81.3700000000
N                16.0740000000       44.1590000000       81.3590000000
C                16.9280000000       42.9880000000       81.0300000000
C                16.7240000000       42.4900000000       79.5910000000
O                17.2570000000       41.3960000000       79.2920000000
C                16.6790000000       41.7600000000       81.9180000000
C                16.2680000000       42.0840000000       83.3540000000
C                17.2830000000       42.8670000000       84.1590000000
N                18.3420000000       41.9810000000       84.6240000000
C                18.1630000000       40.9470000000       85.4410000000
N                16.9240000000       40.6230000000       85.8650000000
N                19.2330000000       40.2160000000       85.7800000000
H                15.4820000000       43.9890000000       81.9590000000
H                17.8330000000       43.2990000000       81.1900000000
H                15.9670000000       41.2330000000       81.5220000000
H                17.4950000000       41.2380000000       81.9580000000
H                15.4540000000       42.6090000000       83.3280000000
H                16.1110000000       41.2500000000       83.8230000000
H                17.6770000000       43.5580000000       83.6040000000
H                16.8500000000       43.2660000000       84.9290000000
H                19.1420000000       42.1390000000       84.3500000000
H                16.2460000000       41.0860000000       85.6070000000
H                16.8110000000       39.9540000000       86.3930000000
H                20.0090000000       40.4210000000       85.4710000000
H                19.1450000000       39.5420000000       86.3070000000
N                15.8850000000       43.1810000000       78.7890000000
C                15.8780000000       43.1340000000       77.3210000000
C                17.0930000000       43.9340000000       76.6900000000
O                18.1070000000       43.3520000000       76.2510000000
C                14.4940000000       43.6730000000       76.8030000000
O                17.1510000000       45.1810000000       76.5970000000
H                15.2810000000       43.7120000000       79.0930000000
H                15.9840000000       42.2170000000       77.0240000000
H                14.4580000000       43.5770000000       75.8390000000
H                13.7810000000       43.1590000000       77.2140000000
H                14.4090000000       44.6090000000       77.0460000000
H                 4.2209937607       47.6542226811       85.5724201585
H                 3.2673858688       51.6334012090       80.5144181201
H                12.0728891487       53.3613862831       86.4466138254
H                13.2153288147       56.2349663804       84.9314456133
H                13.2491334461       42.4365870919       92.0023579647
H                16.0710050906       40.3126399713       91.4163322077
H                16.6848282440       38.4359469287       89.4169358894
H                15.1816408802       35.3463347443       88.0525547819
H                 7.9704249976       37.4361637505       86.8692693295
H                 5.0601313410       38.7307461466       88.2354562305
H                11.7657591269       44.2935769391       90.6320535782
