 51 
 
N                35.7783735982       26.9375648483       99.3289918943
C                36.6591621893       26.1987305097       98.4507766979
C                38.0880645907       26.2946760493       98.9464374635
O                38.5071116070       27.2984578519       99.5256918395
C                36.6146815078       26.7610110326       97.0308154664
C                35.2848001447       26.4641572726       96.3418825214
C                35.1718950467       24.9888854225       95.9254322837
N                35.7609408143       24.7131805719       94.6323237129
C                35.1687607994       24.9812031250       93.4670115088
N                33.9868621947       25.6026342496       93.4049918768
N                35.7930055092       24.6571421524       92.3381950232
H                35.7949413925       27.9398864064       99.2475073860
H                36.3267566573       25.1578423143       98.4971618805
H                36.7594229614       27.8411523657       97.0880888968
H                37.4447619900       26.3406535666       96.4620675466
H                34.4797522454       26.7307924948       97.0258285712
H                35.1957734577       27.1130804713       95.4720474432
H                35.6787009827       24.3549443780       96.6505335276
H                34.1224339642       24.6860355556       95.9099609182
H                36.6971371161       24.3386946825       94.6249694750
H                33.4839315030       25.8469043136       94.2428889091
H                33.4979535706       25.6235331660       92.5236379115
H                36.6526420686       24.1350014343       92.3624339391
H                35.3506000556       24.7576607375       91.4227840986
N                38.8460083434       25.2263701929       98.6910988311
C                40.2089668208       25.1652806786       99.2098987711
C                40.9088778898       26.4889147748       98.8595430384
O                41.0981292248       26.8053747169       97.7001550105
C                40.9510941613       23.9915736931       98.5734616212
C                42.2608841112       23.6440948968       99.2796097462
C                42.9127012294       22.4474741068       98.5700870925
C                44.3894674628       22.2642001175       98.8923602176
N                44.5903176752       21.9464015339      100.3391504401
H                38.4970209183       24.4343920411       98.1631510081
H                40.1670611817       25.0645544833      100.3022307224
H                40.2922108940       23.1224232703       98.5992591374
H                41.1539253116       24.2581933406       97.5350040349
H                42.9225416207       24.5125486743       99.2404266520
H                42.0465600183       23.4214001184      100.3253665333
H                42.3599151487       21.5385096201       98.8067250968
H                42.8438273928       22.6080995287       97.4947836174
H                44.7976149383       21.4452901146       98.3001180788
H                44.9396832366       23.1759868696       98.6569937619
H                45.5879058657       21.7904400599      100.5406433628
H                44.2593862930       22.7285346635      100.9210239201
H                44.0618663800       21.0973940327      100.5919782752
O                38.1524560966       22.6119385398       96.6207613064
H                38.8746319600       22.3171776026       96.0596596929
H                37.6972646989       21.8188394785       96.9167797972
H                34.9259080677       26.6944240475       99.1734763958
H                41.2144853427       27.1012015526       99.5887268193
