 380 
 
N                12.6590000000       56.3450000000      119.1260000000
C                12.0050000000       55.1460000000      118.6100000000
C                11.5750000000       55.2960000000      117.1520000000
O                11.5080000000       54.3090000000      116.4220000000
C                10.7740000000       54.7440000000      119.4440000000
C                11.1810000000       54.7630000000      120.8830000000
C                10.2300000000       53.3940000000      118.9250000000
C                12.3430000000       53.8670000000      121.1030000000
H                12.1720000000       56.8630000000      119.6100000000
H                12.6760000000       54.4480000000      118.6790000000
H                10.0340000000       55.3650000000      119.3540000000
H                11.4310000000       55.6650000000      121.1380000000
H                10.4430000000       54.4560000000      121.4330000000
H                 9.4780000000       53.1250000000      119.4750000000
H                 9.9450000000       53.5010000000      118.0040000000
H                10.9340000000       52.7290000000      118.9780000000
H                12.5110000000       53.7950000000      122.0550000000
H                12.1410000000       52.9920000000      120.7360000000
H                13.1190000000       54.2410000000      120.6570000000
N                11.2130000000       56.5020000000      116.7190000000
C                10.8090000000       56.7020000000      115.3340000000
C                11.9620000000       56.4420000000      114.3690000000
O                11.7780000000       55.7740000000      113.3560000000
C                10.2660000000       58.0990000000      115.1850000000
C                 8.9950000000       58.3560000000      115.9420000000
C                 8.4160000000       59.7310000000      115.5530000000
O                 9.1900000000       60.5900000000      115.0160000000
O                 7.2010000000       59.9520000000      115.7750000000
H                11.1930000000       57.2130000000      117.2030000000
H                10.1080000000       56.0720000000      115.1060000000
H                10.9320000000       58.7250000000      115.5090000000
H                10.0870000000       58.2620000000      114.2460000000
H                 8.3430000000       57.6710000000      115.7260000000
H                 9.1770000000       58.3530000000      116.8950000000
N                13.1660000000       56.9440000000      114.6580000000
C                14.2910000000       56.4990000000      113.8430000000
C                14.4160000000       54.9710000000      113.8390000000
O                14.9010000000       54.3900000000      112.8800000000
C                15.6160000000       57.0780000000      114.3280000000
C                15.6980000000       58.5820000000      114.4360000000
C                17.0950000000       59.0020000000      114.9000000000
O                17.2780000000       59.5640000000      116.0110000000
O                18.0370000000       58.7000000000      114.1480000000
H                13.3450000000       57.5070000000      115.2830000000
H                14.1300000000       56.8280000000      112.9440000000
H                15.7950000000       56.7190000000      115.2110000000
H                16.3100000000       56.7990000000      113.7100000000
H                15.5250000000       58.9810000000      113.5690000000
H                15.0480000000       58.8980000000      115.0820000000
N                14.0220000000       54.2880000000      114.9050000000
C                14.0400000000       52.8250000000      114.8570000000
C                13.0310000000       52.3310000000      113.8300000000
O                13.3810000000       51.5610000000      112.9170000000
C                13.7570000000       52.2270000000      116.2480000000
C                14.8630000000       52.5690000000      117.1820000000
C                13.6340000000       50.7490000000      116.2870000000
C                14.5740000000       52.1790000000      118.5980000000
H                13.7480000000       54.6320000000      115.6450000000
H                14.9250000000       52.5360000000      114.5870000000
H                12.9030000000       52.6110000000      116.4980000000
H                15.6670000000       52.1050000000      116.9020000000
H                15.0080000000       53.5280000000      117.1600000000
H                13.3700000000       50.4780000000      117.1800000000
H                12.9630000000       50.4710000000      115.6450000000
H                14.4910000000       50.3550000000      116.0620000000
H                15.2260000000       52.5980000000      119.1810000000
H                13.6810000000       52.4790000000      118.8330000000
H                14.6300000000       51.2140000000      118.6780000000
N                11.7520000000       52.7670000000      113.9620000000
C                10.7120000000       52.2710000000      113.0610000000
C                11.0510000000       52.5560000000      111.5920000000
O                10.9440000000       51.6800000000      110.7250000000
C                 9.3780000000       52.8660000000      113.4060000000
H                11.4810000000       53.3330000000      114.5510000000
H                10.6510000000       51.3100000000      113.1790000000
H                 8.7090000000       52.5170000000      112.7960000000
H                 9.1510000000       52.6250000000      114.3180000000
H                 9.4310000000       53.8310000000      113.3230000000
N                11.5120000000       53.7490000000      111.2920000000
C                11.8760000000       54.0140000000      109.9210000000
C                13.0810000000       53.1960000000      109.4760000000
O                13.2650000000       53.0000000000      108.2720000000
C                12.1090000000       55.5160000000      109.7390000000
H                11.6190000000       54.4010000000      111.8430000000
H                11.1470000000       53.7670000000      109.3320000000
H                12.3170000000       55.6930000000      108.8090000000
H                11.3050000000       55.9940000000      109.9950000000
H                12.8500000000       55.7920000000      110.3020000000
N                13.9270000000       52.7110000000      110.3670000000
C                14.8490000000       51.6980000000      109.8760000000
C                14.0370000000       50.5200000000      109.3280000000
O                14.1910000000       50.1020000000      108.1810000000
C                15.8200000000       51.1810000000      110.9610000000
C                16.6780000000       52.1270000000      111.6930000000
C                17.4640000000       53.0020000000      110.7580000000
C                17.5340000000       54.4630000000      111.3140000000
N                17.6740000000       55.5100000000      110.2750000000
H                13.9860000000       52.9320000000      111.1960000000
H                15.4000000000       52.1080000000      109.1920000000
H                15.2860000000       50.7280000000      111.6320000000
H                16.4200000000       50.5500000000      110.5330000000
H                16.1240000000       52.6970000000      112.2490000000
H                17.3030000000       51.6310000000      112.2440000000
H                18.3680000000       52.6590000000      110.6730000000
H                17.0340000000       53.0210000000      109.8890000000
H                16.7180000000       54.6460000000      111.8060000000
H                18.3000000000       54.5330000000      111.9050000000
H                17.7220000000       56.3130000000      110.6570000000
H                18.4140000000       55.3710000000      109.8000000000
H                16.9720000000       55.4920000000      109.7280000000
N                13.1660000000       49.9600000000      110.1700000000
C                12.4850000000       48.7310000000      109.8290000000
C                11.6090000000       48.9130000000      108.5820000000
O                11.6600000000       48.1080000000      107.6640000000
C                11.6630000000       48.3080000000      110.9970000000
C                10.5000000000       47.4470000000      110.6190000000
C                10.5830000000       46.0810000000      110.6980000000
C                 9.3150000000       47.9940000000      110.2090000000
C                 9.5090000000       45.2800000000      110.4200000000
C                 8.2400000000       47.1940000000      109.8720000000
C                 8.3390000000       45.8330000000      110.0060000000
O                 7.2630000000       45.0100000000      109.6940000000
H                12.9570000000       50.2780000000      110.9410000000
H                13.1340000000       48.0370000000      109.6300000000
H                12.2220000000       47.8020000000      111.6080000000
H                11.3170000000       49.0980000000      111.4410000000
H                11.3890000000       45.6900000000      110.9470000000
H                 9.2320000000       48.9190000000      110.1560000000
H                 9.5800000000       44.3570000000      110.5140000000
H                 7.4530000000       47.5760000000      109.5570000000
H                 6.6010000000       45.4750000000      109.4690000000
N                10.7970000000       49.9730000000      108.5110000000
C                10.0630000000       50.2570000000      107.2680000000
C                11.1140000000       50.3420000000      106.1700000000
O                11.2810000000       49.4070000000      105.4010000000
C                 9.2430000000       51.5450000000      107.3440000000
C                 8.2430000000       51.5780000000      108.5060000000
C                 7.5070000000       52.9080000000      108.5370000000
C                 6.6020000000       53.0000000000      109.7710000000
N                 5.7100000000       54.1690000000      109.6510000000
H                10.6560000000       50.5300000000      109.1510000000
H                 9.4080000000       49.5640000000      107.0880000000
H                 9.8490000000       52.2940000000      107.4550000000
H                 8.7410000000       51.6440000000      106.5200000000
H                 7.5930000000       50.8670000000      108.3950000000
H                 8.7170000000       51.4660000000      109.3450000000
H                 8.1510000000       53.6340000000      108.5720000000
H                 6.9560000000       52.9930000000      107.7430000000
H                 6.0590000000       52.1990000000      109.8390000000
H                 7.1440000000       53.1020000000      110.5690000000
H                 5.1670000000       54.2110000000      110.3550000000
H                 6.1910000000       54.9160000000      109.6120000000
H                 5.2190000000       54.1030000000      108.9110000000
N                11.8940000000       51.4200000000      106.1500000000
C                12.9380000000       51.6500000000      105.1540000000
C                13.6000000000       50.3550000000      104.6580000000
O                13.4780000000       50.0300000000      103.4940000000
C                13.9540000000       52.6470000000      105.7360000000
C                14.9820000000       53.1090000000      104.7430000000
N                14.7890000000       54.1940000000      103.9000000000
C                16.1870000000       52.5790000000      104.3990000000
C                15.8430000000       54.3270000000      103.1070000000
N                16.7070000000       53.3630000000      103.3910000000
H                11.8370000000       52.0580000000      106.7230000000
H                12.5450000000       52.0320000000      104.3540000000
H                13.4760000000       53.4300000000      106.0540000000
H                14.4220000000       52.2230000000      106.4720000000
H                16.5860000000       51.8270000000      104.7750000000
H                15.9570000000       54.9860000000      102.4600000000
H                17.4680000000       53.2460000000      103.0080000000
N                14.1820000000       49.5430000000      105.4920000000
C                14.8960000000       48.4030000000      104.9590000000
C                14.0030000000       47.2330000000      104.5770000000
O                14.4170000000       46.4430000000      103.7260000000
C                15.9190000000       47.8890000000      105.9700000000
O                15.3220000000       46.8280000000      106.6890000000
H                14.1840000000       49.6190000000      106.3490000000
H                15.3450000000       48.7190000000      104.1590000000
H                16.7070000000       47.5670000000      105.5050000000
H                16.1630000000       48.6020000000      106.5810000000
H                15.8760000000       46.4990000000      107.2280000000
N                12.8440000000       47.0260000000      105.2330000000
C                11.8750000000       45.9890000000      104.7950000000
C                11.6310000000       46.0820000000      103.3080000000
O                11.6740000000       45.0760000000      102.5880000000
C                10.5330000000       46.1360000000      105.5320000000
C                 9.4520000000       45.4320000000      104.8220000000
C                10.6370000000       45.6430000000      106.9810000000
H                12.5930000000       47.4660000000      105.9280000000
H                12.2670000000       45.1280000000      105.0090000000
H                10.3100000000       47.0800000000      105.5520000000
H                 8.6420000000       45.4790000000      105.3550000000
H                 9.3080000000       45.8570000000      103.9630000000
H                 9.7100000000       44.5050000000      104.6940000000
H                 9.7960000000       45.8150000000      107.4340000000
H                10.8220000000       44.6910000000      106.9780000000
H                11.3560000000       46.1180000000      107.4260000000
N                11.3310000000       47.3070000000      102.8470000000
C                11.3160000000       47.7070000000      101.4520000000
C                12.5520000000       47.3670000000      100.6250000000
O                12.4810000000       46.5920000000       99.6690000000
C                11.1250000000       49.2180000000      101.3590000000
C                11.4140000000       49.6200000000       99.9550000000
C                 9.8100000000       49.5580000000      101.8420000000
H                11.1200000000       47.9600000000      103.3650000000
H                10.5980000000       47.1770000000      101.0710000000
H                11.7340000000       49.7220000000      101.9220000000
H                11.1350000000       50.5400000000       99.8270000000
H                12.3670000000       49.5380000000       99.7930000000
H                10.9240000000       49.0390000000       99.3530000000
H                 9.6900000000       50.5190000000      101.7820000000
H                 9.1470000000       49.1070000000      101.2970000000
H                 9.7290000000       49.2720000000      102.7660000000
N                13.6750000000       48.0180000000      100.9240000000
C                14.9540000000       47.6510000000      100.3450000000
C                15.1680000000       46.1300000000      100.2240000000
O                15.6780000000       45.6990000000       99.1900000000
C                16.0670000000       48.2850000000      101.1540000000
C                17.4610000000       47.6410000000      100.9860000000
C                18.4760000000       48.4030000000      101.8790000000
C                19.6500000000       47.5800000000      102.4210000000
N                20.2630000000       48.1690000000      103.7180000000
H                13.7180000000       48.6840000000      101.4670000000
H                14.9760000000       47.9850000000       99.4340000000
H                16.1450000000       49.2150000000      100.8890000000
H                15.8330000000       48.2260000000      102.0930000000
H                17.4330000000       46.7120000000      101.2630000000
H                17.7460000000       47.7030000000      100.0610000000
H                18.8530000000       49.1290000000      101.3580000000
H                17.9980000000       48.7580000000      102.6460000000
H                19.3410000000       46.6820000000      102.6190000000
H                20.3490000000       47.5500000000      101.7490000000
H                20.9470000000       47.6660000000      103.9870000000
H                20.5540000000       48.9960000000      103.5690000000
H                19.6490000000       48.1900000000      104.3620000000
N                14.7990000000       45.2760000000      101.1960000000
C                14.9960000000       43.8460000000      100.9620000000
C                13.9940000000       43.3160000000       99.9500000000
O                14.3810000000       42.6600000000       98.9790000000
C                14.9300000000       42.9980000000      102.2300000000
C                16.2720000000       42.6310000000      102.8110000000
C                17.1380000000       41.8470000000      101.8050000000
C                18.5910000000       41.8700000000      102.3260000000
N                19.5820000000       41.0490000000      101.5750000000
H                14.4540000000       45.4920000000      101.9540000000
H                15.9010000000       43.7570000000      100.6230000000
H                14.4440000000       43.4930000000      102.9080000000
H                14.4650000000       42.1720000000      102.0250000000
H                16.7470000000       43.4410000000      103.0540000000
H                16.1400000000       42.0760000000      103.5950000000
H                16.8330000000       40.9290000000      101.7430000000
H                17.1030000000       42.2680000000      100.9320000000
H                18.9060000000       42.7870000000      102.3010000000
H                18.5890000000       41.5440000000      103.2400000000
H                20.3890000000       41.1370000000      101.9410000000
H                19.3470000000       40.1920000000      101.5980000000
H                19.6190000000       41.3170000000      100.7270000000
N                12.6880000000       43.5610000000      100.1760000000
C                11.6570000000       43.0280000000       99.2670000000
C                11.8560000000       43.5110000000       97.8180000000
O                11.5110000000       42.8220000000       96.8510000000
C                10.2840000000       43.4260000000       99.7720000000
S                 9.8040000000       42.3530000000      101.0450000000
H                12.3800000000       44.0230000000      100.8330000000
H                11.7150000000       42.0600000000       99.2600000000
H                10.3110000000       44.3320000000      100.1180000000
H                 9.6380000000       43.3660000000       99.0500000000
N                 3.3500000000       46.9390000000      101.7980000000
C                 4.6730000000       47.5460000000      101.6540000000
C                 5.6730000000       46.6220000000      100.9440000000
O                 6.2610000000       47.0340000000       99.9550000000
C                 5.2240000000       47.9280000000      103.0180000000
C                 5.6980000000       49.3660000000      103.2800000000
C                 6.4950000000       49.3630000000      104.6840000000
N                 5.5700000000       49.3730000000      105.8370000000
C                 5.0190000000       50.4670000000      106.3720000000
N                 5.3430000000       51.7070000000      105.9100000000
N                 4.1610000000       50.3250000000      107.3970000000
H                 2.9460000000       47.1800000000      102.5180000000
H                 4.5730000000       48.3410000000      101.1070000000
H                 4.5260000000       47.7520000000      103.6690000000
H                 5.9890000000       47.3570000000      103.1900000000
H                 6.2940000000       49.6580000000      102.5730000000
H                 4.9380000000       49.9650000000      103.3430000000
H                 7.0410000000       48.5630000000      104.7400000000
H                 7.0550000000       50.1530000000      104.7360000000
H                 5.3710000000       48.6150000000      106.1920000000
H                 5.9080000000       51.7920000000      105.2670000000
H                 4.9830000000       52.4040000000      106.2610000000
H                 3.9750000000       49.5400000000      107.6970000000
H                 3.7980000000       51.0180000000      107.7530000000
N                 5.8490000000       45.3720000000      101.4060000000
C                 6.7480000000       44.4320000000      100.7490000000
C                 6.2330000000       44.0050000000       99.3790000000
O                 7.0070000000       44.0360000000       98.3990000000
C                 6.9500000000       43.1920000000      101.5970000000
S                 7.8380000000       41.8090000000      100.7430000000
H                 5.4560000000       45.0510000000      102.1000000000
H                 7.5970000000       44.8890000000      100.6400000000
H                 7.4710000000       43.4350000000      102.3790000000
H                 6.0810000000       42.8590000000      101.8680000000
N                12.6590000000       38.4328223045      105.9940078328
C                12.0050000000       39.6318223045      106.5100078328
C                11.5750000000       39.4818223045      107.9680078328
O                11.5080000000       40.4688223045      108.6980078328
C                10.7740000000       40.0338223045      105.6760078328
C                11.1810000000       40.0148223045      104.2370078328
C                10.2300000000       41.3838223045      106.1950078328
C                12.3430000000       40.9108223045      104.0170078328
H                12.1720000000       37.9148223045      105.5100078328
H                12.6760000000       40.3298223045      106.4410078328
H                10.0340000000       39.4128223045      105.7660078328
H                11.4310000000       39.1128223045      103.9820078328
H                10.4430000000       40.3218223045      103.6870078328
H                 9.4780000000       41.6528223045      105.6450078328
H                 9.9450000000       41.2768223045      107.1160078328
H                10.9340000000       42.0488223045      106.1420078328
H                12.5110000000       40.9828223045      103.0650078328
H                12.1410000000       41.7858223045      104.3840078328
H                13.1190000000       40.5368223045      104.4630078328
N                14.0220000000       40.4898223045      110.2150078328
C                14.0400000000       41.9528223045      110.2630078328
C                13.0310000000       42.4468223045      111.2900078328
O                13.3810000000       43.2168223045      112.2030078328
C                13.7570000000       42.5508223045      108.8720078328
C                14.8630000000       42.2088223045      107.9380078328
C                13.6340000000       44.0288223045      108.8330078328
C                14.5740000000       42.5988223045      106.5220078328
H                13.7480000000       40.1458223045      109.4750078328
H                14.9250000000       42.2418223045      110.5330078328
H                12.9030000000       42.1668223045      108.6220078328
H                15.6670000000       42.6728223045      108.2180078328
H                15.0080000000       41.2498223045      107.9600078328
H                13.3700000000       44.2998223045      107.9400078328
H                12.9630000000       44.3068223045      109.4750078328
H                14.4910000000       44.4228223045      109.0580078328
H                15.2260000000       42.1798223045      105.9390078328
H                13.6810000000       42.2988223045      106.2870078328
H                14.6300000000       43.5638223045      106.4420078328
N                11.7520000000       42.0108223045      111.1580078328
C                10.7120000000       42.5068223045      112.0590078328
C                11.0510000000       42.2218223045      113.5280078328
O                10.9440000000       43.0978223045      114.3950078328
C                 9.3780000000       41.9118223045      111.7140078328
H                11.4810000000       41.4448223045      110.5690078328
H                10.6510000000       43.4678223045      111.9410078328
H                 8.7090000000       42.2608223045      112.3240078328
H                 9.1510000000       42.1528223045      110.8020078328
H                 9.4310000000       40.9468223045      111.7970078328
N                13.1660000000       44.8178223045      114.9500078328
C                12.4850000000       46.0468223045      115.2910078328
C                11.6090000000       45.8648223045      116.5380078328
O                11.6600000000       46.6698223045      117.4560078328
C                11.6630000000       46.4698223045      114.1230078328
C                10.5000000000       47.3308223045      114.5010078328
C                10.5830000000       48.6968223045      114.4220078328
C                 9.3150000000       46.7838223045      114.9110078328
C                 9.5090000000       49.4978223045      114.7000078328
C                 8.2400000000       47.5838223045      115.2480078328
C                 8.3390000000       48.9448223045      115.1140078328
O                 7.2630000000       49.7678223045      115.4260078328
H                12.9570000000       44.4998223045      114.1790078328
H                13.1340000000       46.7408223045      115.4900078328
H                12.2220000000       46.9758223045      113.5120078328
H                11.3170000000       45.6798223045      113.6790078328
H                11.3890000000       49.0878223045      114.1730078328
H                 9.2320000000       45.8588223045      114.9640078328
H                 9.5800000000       50.4208223045      114.6060078328
H                 7.4530000000       47.2018223045      115.5630078328
H                 6.6010000000       49.3028223045      115.6510078328
H                13.3580232514       56.1079269126      119.6409396520
H                12.2735048376       44.4022537184       97.6409222770
H                 2.8324240403       47.1779291782      101.1015605025
H                 5.2851898970       43.7044652284       99.2725347021
H                13.3580232514       38.6698953919      105.4790681808
H                11.3468758701       38.5786408667      108.3316321882
H                14.8544979809       40.1746173519      110.3476462501
H                11.3657774089       41.3128354579      113.8012441694
H                14.0549171751       44.9585143421      114.9443504093
H                10.9897923248       45.0823908118      116.6042106585
