 462 
 
N                57.9634162145       54.8399761025      214.6109733596
C                56.8440084567       55.7639948474      214.5051183021
C                55.6430077911       55.0165722307      213.9642092410
O                54.5137095471       55.2934634034      214.3505955117
C                57.0940778285       56.9590247278      213.6056718623
H                58.9005071046       55.1058595047      214.3142633052
H                56.5739355274       56.1138212527      215.5122398999
H                56.2089514384       57.5882414839      213.5710836705
H                57.9227704589       57.5519686321      213.9887707096
H                57.3354531192       56.6259454993      212.5984711222
N                55.8891283374       54.0762935144      213.0521360339
C                54.7756294124       53.3665165932      212.4880726485
C                54.0825775061       52.4781591976      213.4821819600
O                52.8602480898       52.4099774175      213.4712558295
C                55.1371235506       52.4880500480      211.3182263570
S                55.4619256761       53.5818299573      209.9275623536
H                56.8259092189       53.9627603949      212.6710203223
H                54.0332850948       54.1167861155      212.1735084766
H                56.0130488449       51.8801540353      211.5402879128
H                54.3021804081       51.8502535146      211.0307726155
H                56.6493507471       53.9976888078      210.3761256836
N                53.4885975386       52.8585957348      216.4032932805
C                52.8359995818       53.7348187254      217.3277540841
C                51.7511152423       54.6373198629      216.7285121029
O                50.7721961404       54.8298013425      217.4343070491
C                53.8921229445       54.5871940846      218.0794708302
O                55.0094847742       53.8267959088      218.4920387882
C                53.2367985562       55.2386922819      219.2784197012
H                54.4138767060       53.1231596790      216.0868582159
H                52.2983127723       53.1103271110      218.0536896577
H                54.2226813357       55.3719822319      217.3784454255
H                55.6081913360       53.6828400747      217.7433232826
H                53.9474727851       55.8818948248      219.7888004716
H                52.3816258008       55.8295333120      218.9669015807
H                52.9029136505       54.4793055342      219.9798378785
N                51.8827512696       55.1700310938      215.4901542349
C                50.8719987435       56.0398600686      214.8908306154
C                50.1974967909       55.4571677024      213.6157793450
O                49.3431776604       56.0305875555      212.9466141259
C                51.4504679505       57.4189061179      214.5275805332
C                52.0246176782       58.0648599103      215.7354398166
C                51.2388275752       58.7030942227      216.6798551316
C                53.3537127871       57.9138657578      216.0457234462
C                51.7460450777       59.2068013028      217.8617834084
C                53.8651213992       58.4037159913      217.2407303895
C                53.0989568807       59.1086580669      218.1563697921
O                53.6434279567       59.7509267728      219.2474800864
H                52.7854624277       55.1094245036      215.0277479148
H                50.0869986557       56.1697753816      215.6467164343
H                52.2343032676       57.2704060917      213.7822961387
H                50.6404177375       58.0035951160      214.0942670765
H                50.1747995897       58.8224919735      216.5196796926
H                54.0124132325       57.3817345037      215.3765553254
H                51.0787811318       59.7085404663      218.5467644109
H                54.9225286705       58.2803745454      217.4420442907
H                54.5663997146       59.4761188667      219.3498513969
N                50.6678899320       54.2749977350      213.2097129825
C                50.1997914730       53.6502519355      211.9941660466
C                49.1151501729       52.6381939644      212.3480335194
O                49.3466384104       51.4993840376      212.7459260054
C                51.3650675965       52.9500519163      211.3135635355
S                51.4046336604       53.4263877179      209.6125015976
H                51.3346460866       53.7388413214      213.7526144471
H                49.7878619012       54.4472147519      211.3653452994
H                52.2941639165       53.3076964885      211.7320872757
H                51.2975862779       51.8719823258      211.4366732391
H                50.5052241066       52.5412539678      209.1750973816
N                47.8749706795       53.1228442842      212.2153442683
C                46.7970805470       52.1745268167      212.3793813283
C                46.8008663964       51.1351592906      211.2289253798
O                47.0001819415       51.4532344517      210.0582763003
H                47.7049171841       54.0142621409      211.7806533434
H                46.9300842887       51.6735310920      213.3399332530
H                45.8474797162       52.7105428966      212.3664084303
N                59.4917820933       68.6152986637      207.3019150618
C                58.3109809260       68.4955019916      206.4484938305
C                58.4809129095       69.2634364792      205.1181401369
O                57.7877437153       68.9659254761      204.1485179957
C                57.1309824095       68.9798173760      207.2761598795
C                57.7707909129       69.2679801711      208.6257680011
C                59.2271225360       69.5817169136      208.3227832090
H                58.2251933853       67.4498196202      206.1458779662
H                56.7354721125       69.8944398558      206.8331200922
H                56.3463262627       68.2311105539      207.3318542496
H                57.3036944078       70.0893926873      209.1648423682
H                57.7480568610       68.3744233330      209.2507304149
H                59.3646767603       70.5994260320      207.9389600443
H                59.8797840082       69.4503912730      209.1886574211
N                58.1828282379       66.7439611188      202.4131473803
C                57.0520394193       65.8514780686      202.2696228530
C                56.3486690407       66.0686271833      200.9312023354
O                55.9902539774       65.0694024637      200.3064739091
C                56.0535759912       65.9177408877      203.4127624487
C                56.7238378881       65.6448568416      204.7133233410
C                57.9730638352       65.1432020682      204.9348751786
C                56.1826992005       65.9327383286      206.0134595466
N                58.2310457751       65.0746008513      206.2866228924
C                57.1380054702       65.4896956380      206.9640602431
C                54.9767385699       66.4857461720      206.4595885962
C                56.7978594861       65.3440896593      208.2931209203
C                54.6587130540       66.4055699862      207.7859978873
C                55.5323330000       65.7598439230      208.6675311157
H                58.1974781540       67.4164924650      203.1694658777
H                57.4613124781       64.8327985713      202.2055296485
H                55.6144321394       66.9193761135      203.4408850415
H                55.2557003048       65.1969498041      203.2162089345
H                58.7414576842       64.8383412149      204.2472273681
H                59.0695124523       64.6668544685      206.6673144354
H                54.3106459822       66.9288514160      205.7340068826
H                57.5059706195       64.9224175050      208.9847568263
H                53.7302381621       66.7982491366      208.1613822101
H                55.2306039355       65.6183371125      209.6945182850
N                53.0870449930       56.5054392747      201.7575201273
C                51.7594575159       56.8995630639      202.1667463549
C                51.4762841166       56.5755301260      203.6708899364
O                51.0862171955       57.4526069121      204.4397719397
H                53.2176854241       55.9235330590      200.9384418113
H                51.6259465718       57.9796581848      202.0534451665
H                51.0303484831       56.3531021496      201.5692832530
N                51.6886426502       55.2826900375      204.0140988297
C                51.7981121411       54.8162174111      205.3876676273
C                52.7253758850       55.7067553905      206.2474790375
O                52.3411273823       56.2027207886      207.3176696481
C                52.3645245263       53.4272449044      205.4305836495
C                51.3872142025       52.3874714917      204.9688411360
C                51.9914878321       51.0450404955      205.3022281825
C                50.0559682540       52.4265590931      205.6616674217
H                52.0293678833       54.6517784365      203.2956780127
H                50.8224937877       54.8710764403      205.8804541086
H                53.2811998926       53.3941734816      204.8359980324
H                52.6200030351       53.2254277604      206.4767133352
H                51.2402456973       52.4778365266      203.8856536876
H                51.3579368337       50.2374154074      204.9386536681
H                52.9715255195       50.9358351362      204.8399781469
H                52.1049748417       50.9182842204      206.3747029578
H                49.4191348195       51.6203926471      205.2930793647
H                50.1885888150       52.2814587952      206.7342462884
H                49.5108752215       53.3578293924      205.5143091791
N                53.9846217885       55.8260075154      205.7682769759
C                54.9429686785       56.5127643274      206.6135456995
C                54.4704395478       57.9141598477      206.9653945978
O                54.5693924919       58.3481278212      208.1092865658
C                56.3124459299       56.5837820930      205.9821439582
C                57.2147937378       57.4706469906      206.8396201964
C                56.8236481810       55.1658383723      205.9161533686
H                54.2677293768       55.4378942381      204.8769803888
H                55.0045945768       55.9686082936      207.5681143373
H                56.2247560609       57.0161503437      204.9808896429
H                58.2508146150       57.3554276587      206.5287512774
H                56.9482760195       58.5194682832      206.7365980689
H                57.1269564503       57.1974538063      207.8867545106
H                57.8199574702       55.1423322986      205.4781330721
H                56.8720714509       54.7421146824      206.9160928666
H                56.1727913209       54.5479646898      205.3071859835
N                54.0295597773       58.6140422743      205.9087470388
C                53.7056268401       60.0331119648      206.0077698856
C                52.5854608685       60.1670972840      207.0197124863
O                52.5699491604       61.0629740761      207.8565541772
C                53.3713634113       60.7478902559      204.6924936165
C                52.9522828713       62.2289437893      204.8909342233
C                53.9685226492       63.1099436574      205.5896624333
C                52.8333153798       62.8932196494      203.5417318426
H                54.0455905839       58.1837301076      204.9882149403
H                54.5736554832       60.5415109963      206.4531493815
H                54.2502768889       60.6941151178      204.0500497005
H                52.5614672629       60.2185464691      204.1879425973
H                52.0067741528       62.2183469412      205.4343097678
H                53.6584263664       64.1500344151      205.5842428355
H                54.1310533701       62.8301281641      206.6306362476
H                54.9249789042       63.0418412428      205.0755702472
H                52.5857677885       63.9463894703      203.6438756556
H                53.7768095841       62.8167036388      203.0129641830
H                52.0749778060       62.4161238767      202.9184006034
N                51.6825709521       59.1893227651      206.9119224823
C                50.5889982272       59.0531273867      207.8393564829
C                50.9856036982       59.2983995910      209.3157858740
O                50.4083004767       60.1438605249      210.0146665303
H                51.7055664677       58.5337874011      206.1395373246
H                49.7845190896       59.7616723807      207.6032261049
H                50.1975305113       58.0379494861      207.7590031100
N                51.9708036486       58.4326555485      209.6705111867
C                52.6498072020       58.3345555639      210.9625051539
C                53.3166505165       59.6560814631      211.2011684247
O                52.9498613983       60.3356334078      212.1498312717
C                53.6857489652       57.2279669875      211.0029887510
H                52.2567811220       57.7615718946      208.9668674653
H                51.8952954868       58.1963272366      211.7478458289
H                54.1590784208       57.2000436374      211.9809101988
H                53.2071021415       56.2671160845      210.8180537530
H                54.4371570300       57.3890410021      210.2349815403
N                54.2593772053       60.0724860036      210.3697382187
C                54.8234487904       61.3557082536      210.6977857335
C                53.7287893356       62.4047696476      211.1069910138
O                53.9184114275       63.1808640811      212.0505315930
C                55.6217779594       61.9219747079      209.5568170529
C                56.6493273621       60.9476967529      209.0298677373
C                57.2871086273       61.6041194866      207.8022934251
C                57.6791747765       60.6510351568      210.0895048992
H                54.4428981219       59.5941506980      209.4961108503
H                55.4463120085       61.2479620508      211.5975925673
H                54.9284402127       62.1752092670      208.7491091114
H                56.1144282473       62.8434428521      209.8680438668
H                56.1810951708       60.0133410570      208.7132910012
H                58.0510234941       60.9625026532      207.3670290424
H                56.5461337428       61.8166398604      207.0365630028
H                57.7683814563       62.5415201957      208.0716300007
H                58.4785276289       60.0309282715      209.6832984842
H                58.1293272486       61.5738333596      210.4554163270
H                57.2363654982       60.1214064471      210.9297229127
N                52.6657556983       62.5249053697      210.2899235710
C                51.7541463062       63.6664311157      210.4001768978
C                51.0396920135       63.5771393513      211.7676784701
O                50.9711279933       64.5543875763      212.5175952514
C                50.7815051248       63.7681257909      209.2087321228
C                51.4509532498       64.2642335857      207.9221655822
C                50.5789258477       64.2372789843      206.6335275513
C                49.9877552047       65.6126770943      206.2669901364
N                49.3874305080       65.5804032548      204.9007026188
H                52.5374521468       61.8931701494      209.5062927898
H                52.3687911026       64.5752386287      210.4628438088
H                50.3423465760       62.7803487249      209.0522746400
H                49.9805709268       64.4437249674      209.5154565868
H                51.8227439707       65.2733930368      208.0858352994
H                52.3122678639       63.6199577941      207.7525944791
H                51.2127399093       63.9246610349      205.8096942935
H                49.7781059679       63.5111621392      206.7655186832
H                49.2245853010       65.9029943590      206.9899355261
H                50.7831360006       66.3599106244      206.2755326222
H                49.0141723737       66.5091488332      204.6539454461
H                50.1043528571       65.3100328508      204.2098111885
H                48.6177945177       64.8957700352      204.8581286366
N                50.5433276190       62.3609452421      212.0250328267
C                49.9486650311       61.9369848123      213.2906041531
C                50.7499384071       62.3870046202      214.5336125173
O                50.2783226040       63.1186599468      215.3890098821
C                49.8771115695       60.3996763425      213.2812428248
H                50.6579889090       61.6215015220      211.3360476134
H                48.9490219983       62.3801880119      213.3982264127
H                49.5373809827       60.0480980584      214.2526325975
H                49.1765425088       60.0694447058      212.5191304038
H                50.8586645366       59.9930708013      213.0643582469
N                51.9606919412       61.8364865807      214.6038143022
C                53.0036982044       62.0469020812      215.5728033883
C                53.2213231111       63.5460655254      215.7581485184
O                53.2789732239       64.0412950180      216.8814546366
C                54.2449854334       61.3455462474      215.0204338082
H                52.2599920435       61.3091708200      213.7866291524
H                52.7065120392       61.6354615068      216.5487844501
H                55.0882751851       61.5229304055      215.6831260400
H                54.0530537842       60.2787919838      214.9565275504
H                54.4659825991       61.7483013316      214.0362931783
N                53.4041491633       64.2421218428      214.6201645675
C                53.5366255928       65.7010208638      214.6794455561
C                52.2869968170       66.3925647409      215.4052119817
O                52.4477087199       67.3101093934      216.2064955095
C                53.9427647496       66.3231256104      213.3390167859
C                54.1624126488       67.8258070203      213.5269790252
C                55.0022261686       68.5919013366      212.4531788435
N                54.3742630496       69.3323680659      211.3144122435
C                53.3123614506       69.0135598145      210.5447839038
N                52.3675231742       68.1014870182      210.8968479135
N                53.2179220187       69.5853561895      209.3312494857
H                53.3503258324       63.8060818364      213.7022338105
H                54.3382106796       65.9072804757      215.4083062625
H                54.8624998387       65.8318199691      213.0220207781
H                53.1681540889       66.0833205329      212.6085746545
H                53.2071739538       68.3251890826      213.7004161001
H                54.7088317457       67.9436218358      214.4643191711
H                55.5745911611       69.3539736908      212.9766835457
H                55.7112306972       67.8870912034      212.0093999531
H                55.0356357775       69.9875851165      210.9203456081
H                52.3235878366       67.7763242154      211.8475792501
H                51.4971330322       68.0852502627      210.3881179366
H                53.8966103021       70.2711923505      209.0408800942
H                52.3510872138       69.5452514991      208.8174365041
N                51.0743224213       65.8804545048      215.0839490239
C                49.7904193189       66.4274737791      215.5676001860
C                49.7007830223       66.3227321041      217.1177368792
O                49.4667519219       67.2404786158      217.9095005336
C                48.6196989421       65.6914249764      214.8413176783
C                47.2578227583       66.3211070995      215.0776877245
C                47.3017775839       67.8410119532      214.7237651406
O                47.9632310661       68.1847949885      213.7229830497
O                46.6773424091       68.5993877083      215.4937738082
H                51.0008240781       65.2151980622      214.3205092243
H                49.7456606895       67.4966239040      215.3188812216
H                48.8455657696       65.7581872587      213.7752548760
H                48.6198164798       64.6443313710      215.1458407507
H                46.5011336352       65.8378143157      214.4570103967
H                46.9519718181       66.2476393982      216.1243867630
N                49.9103710788       65.0516074332      217.4783290031
C                49.6236133851       64.5260290928      218.7640970289
C                50.6760362969       64.7997309487      219.8466991131
O                50.3290168906       64.6883153185      221.0225463567
C                49.3357025810       63.0419991262      218.6063335771
C                48.8627216361       62.4343645070      219.9280229411
C                49.2553510415       60.9325051358      219.8929948584
O                48.8296870458       60.3148744933      218.8769021792
O                49.9892418239       60.5173661215      220.8318481978
H                50.1547726601       64.3896313365      216.7469522330
H                48.7218022611       65.0314341545      219.1493686479
H                48.5988881458       62.8759420333      217.8213713346
H                50.2633221861       62.5501938761      218.2904833354
H                49.3460981910       62.9026273010      220.7806825800
H                47.7815415607       62.5318616055      220.0326922960
N                51.9225524787       65.1578092569      219.5184496792
C                52.8444565471       65.4958969915      220.5908244857
C                53.3049415960       66.9464562507      220.4753551700
O                53.0772222422       67.6293824860      219.4910036267
C                54.0700444845       64.5739597063      220.6774190968
C                53.6259650236       63.1385457372      220.8665225453
C                52.9671354405       62.9472448733      222.2265979326
O                53.0722517801       63.7275782752      223.1724387406
N                52.3459607158       61.7278828004      222.2742216244
H                52.2167681256       65.2764198950      218.5582596725
H                52.2610282133       65.3924139211      221.5140000850
H                54.6577735286       64.6670150219      219.7626262795
H                54.6845089707       64.8515839779      221.5322497141
H                52.9245053011       62.8361310923      220.0893119013
H                54.4914201232       62.4751988910      220.8273707525
H                52.0160400238       61.3015575684      221.4203176827
H                51.7061894161       61.5801265793      223.0420987557
N                53.9910732179       67.3580164075      221.5897818620
C                54.7595013372       68.5895366101      221.5256414557
C                56.1758056617       68.1833333313      221.0909018711
O                56.9480482763       67.6291827155      221.8772996054
C                54.9309890541       69.4270331753      222.8062120985
C                55.5965764851       70.7610931379      222.4145614285
C                53.6362978018       69.5745254602      223.6084771851
H                54.1801068817       66.7089109469      222.3366255329
H                54.2781035986       69.1912525147      220.7467944486
H                55.6382435194       68.8781557461      223.4397646738
H                55.7994631995       71.3541371675      223.3040107816
H                56.5375391421       70.5828141081      221.9005237299
H                54.9456527966       71.3351825267      221.7606799658
H                53.8365885952       70.1467801801      224.5101491805
H                52.8848029394       70.0926712339      223.0182024372
H                53.2630705717       68.5932292601      223.8815633316
N                56.5060855384       68.5067914670      219.8348301049
C                57.8173600209       68.2518115007      219.3057449268
C                59.0082058029       68.2806088037      220.2836904831
O                59.7627676883       67.3218342443      220.3871461224
C                57.9939301861       69.2155464283      218.1248038280
O                58.0967200660       68.2148373285      217.1442667352
C                59.1324059915       70.2592323326      218.1676462660
H                55.7865860164       68.8131011012      219.1959251330
H                57.8501912868       67.2338985131      218.8964672816
H                57.0591558793       69.7846989420      217.9754859401
H                58.3472086018       68.5629596222      216.2763083382
H                59.1299871367       70.8299199438      217.2450998672
H                58.9819028458       70.9644062693      218.9768812041
H                60.0951334091       69.7684243750      218.2785038987
N                59.0144535716       66.2002218946      223.4340856654
C                59.3360112553       64.8398584340      223.0816654585
C                60.8595532628       64.7089220106      222.9416506038
O                61.4600104396       63.7484381408      223.4139284551
C                58.5658732301       64.3674352820      221.8689037049
C                58.5394475005       62.8555104047      221.8981748973
C                57.4507226392       62.3739966492      222.8379378883
O                56.4723105877       63.0813337333      223.0044839831
N                57.5578420685       61.1255326746      223.3984771330
H                58.4056533778       66.7368845393      222.8244549574
H                59.0786878180       64.2084639713      223.9469101297
H                57.5437893509       64.7467582743      221.9260309307
H                59.0297672258       64.7484418255      220.9573401257
H                58.2624253106       62.4849635671      220.9114294004
H                59.5175320496       62.4576433493      222.1683674400
H                58.4470877733       60.6591691867      223.4232750193
H                56.8543524182       60.8171892481      224.0541675462
O                51.6513414491       69.3054164918      218.0999904219
H                51.1069772790       70.0919793661      217.9903074219
H                51.0552335600       68.5530085603      218.0510092633
N                54.2034085645       63.9089580717      228.2209377016
C                55.1582160021       63.0571903507      227.5735156023
C                55.1671185686       61.6703941631      228.2053123092
O                55.2450056579       60.6467350444      227.5222849826
C                56.5614601850       63.6068445577      227.6756527453
C                57.5142732466       62.5984175358      227.0497171258
C                56.6740365505       64.9552364467      226.9871257953
H                54.4908248609       64.8165927876      228.5664369514
H                54.8800634394       62.9333106373      226.5147573327
H                56.8157239093       63.7390050792      228.7338130963
H                58.5122137201       63.0189094598      226.9839982212
H                57.5780681688       61.6786874980      227.6227262342
H                57.1774802084       62.3548580960      226.0443089591
H                57.6931385925       65.3212202138      227.0812439775
H                56.4372137356       64.8662351493      225.9278841469
H                56.0158888213       65.6928401103      227.4380491501
N                52.4956839478       59.5525337034      227.3227118620
C                52.7300450713       58.9141794291      226.0535072296
C                53.7595407823       57.7664089109      226.1756668994
O                53.5281956672       56.6792233511      225.6430354423
C                53.1279048171       59.9167700225      224.9478734700
O                54.4503364775       59.6509937171      224.4545277429
H                52.9596612744       60.4257745981      227.5318064036
H                51.7937336267       58.4171510345      225.7651551421
H                52.4207461986       59.8299400472      224.1208230714
H                53.0937925417       60.9299012486      225.3666380799
H                54.5657598872       60.1975509028      223.6689085805
N                62.4804014554       63.8825094889      216.5230190256
C                61.3872663362       64.7268151171      217.0107916959
C                61.6810897906       66.1397845760      216.6104112618
O                60.8244064637       66.8232042602      216.0769405903
C                61.1173077612       64.6663189890      218.5205594285
C                60.2795474716       63.4853289996      218.8036347865
C                60.7298099280       62.2560861966      219.1984911680
C                58.8819530668       63.3508802756      218.5523741887
N                59.6885793206       61.3562929533      219.2344113375
C                58.5379396396       61.9935629577      218.8462943483
C                57.8929422809       64.2305136779      218.1333083339
C                57.2514543165       61.4804014860      218.7407432008
C                56.6201716061       63.7004121315      218.0064338704
C                56.2971438152       62.3653055536      218.3030392495
H                62.9453698382       63.2318445023      217.1447084137
H                60.4745262188       64.4427366565      216.4681360671
H                62.0720073805       64.6017539615      219.0456347474
H                60.6087213362       65.5864616640      218.8180868960
H                61.7305653587       61.9533591598      219.4387139011
H                59.7635934202       60.3876954796      219.4919054321
H                58.1150084416       65.2587045206      217.8939566011
H                57.0406557916       60.4490891281      218.9695740590
H                55.8167696294       64.3378434779      217.6623879833
H                55.2691446771       62.0606036829      218.1817155794
N                60.4230673351       66.8118165165      212.8897542640
C                59.0271274979       67.1346213921      212.6615089088
C                58.7307981063       68.5737216754      213.0051520913
O                57.8036682612       69.1761498352      212.4839838325
C                58.1360243548       66.3533149687      213.5748326623
C                58.0994448300       64.9336008294      213.1426864287
C                57.2821718094       64.1026861825      214.0847390453
C                57.4727761468       64.8835032462      211.7556028260
H                60.6539603957       66.0975702011      213.5692163551
H                58.8017303772       66.9890749431      211.6019333763
H                58.5199930287       66.4513289686      214.5975636567
H                57.1328125033       66.7832104953      213.5582555729
H                59.1169831417       64.5277757252      213.0979202264
H                57.2621191973       63.0655825976      213.7630268669
H                57.7015870757       64.1318902155      215.0903001456
H                56.2592344045       64.4660387601      214.1383394836
H                57.1999856327       63.8551347605      211.5232670488
H                56.5705781984       65.4857644404      211.7170583156
H                58.1545007940       65.2159267212      210.9767006678
H                58.0791513563       54.6056621058      215.4721947759
H                54.6192232854       51.9518901626      214.1417668373
H                53.5869566973       52.0461114964      216.7777192922
H                46.6374100037       50.1688173767      211.4275841657
H                59.8320060383       67.7973340887      207.4606022425
H                59.1535831666       70.0000892046      205.0484444598
H                58.9329912568       66.2614740478      202.5334040703
H                56.1944021324       66.9966814812      200.5922083218
H                53.5769459262       57.2392476441      201.5799747737
H                59.1740600252       69.0908342953      220.8458532973
H                58.6008564519       66.2137735401      224.2333063956
H                61.3796949208       65.4135412974      222.4589868324
H                53.5316396841       64.0945461344      227.6514786229
H                55.1088423482       61.5732127747      229.1988713965
H                51.6196156677       59.7405992381      227.4071850713
H                54.6083329946       57.9081803531      226.6850318358
H                62.1810468619       63.3602175075      215.8539914376
H                62.5861427063       66.5296948915      216.7802616830
H                60.7940705341       66.5232370795      212.1222397463
H                59.2986147770       69.0555375495      213.6725632778
