 513 
 
N                76.1589702888       54.3078617468      209.6805207501
C                75.2731152386       55.1098472877      208.7531673185
C                74.0333205058       55.6743513849      209.5098959367
O                73.4110849805       54.9482583496      210.4208637140
C                74.7984912680       54.2153585550      207.5256767071
O                73.8851195703       53.0339162643      207.9215251805
H                76.5855881670       53.5975204989      209.1754535615
H                76.8148660785       54.8702395115      210.0653662105
H                75.6109679363       53.9014526045      210.3622229429
H                75.8216214736       55.8825909102      208.4045523107
H                74.3359134511       54.8282656964      206.8720312693
H                75.6653768005       53.8422679561      207.0909203017
H                73.8214472624       52.5949321957      207.1425369126
N                73.6658844314       56.9186263716      209.0485179169
C                72.3256016530       57.3727765647      209.3720053812
C                71.1972592954       56.3938779099      208.9466701485
O                70.3644380628       55.9902500989      209.7642322897
C                72.1006677392       58.6548971701      208.7822438373
C                70.9124320276       59.5460268450      209.3113674512
C                71.1878463698       61.1732565352      209.1354224600
O                71.7902823282       61.6419051157      208.0974291507
O                70.9461023477       62.0361928947      210.0808784977
H                74.1719979990       57.4695364023      208.5366431970
H                72.2136006398       57.4204729991      210.3994512319
H                72.9608158695       59.2396993411      208.9116420432
H                71.9277508014       58.5906737218      207.7813036057
H                70.0740580395       59.3457282571      208.8518289353
H                70.8510147846       59.4052668377      210.3356564990
N                71.2914224010       55.9022008360      207.6806756959
C                70.3911347830       55.0165545312      207.0241533560
C                69.7005565113       53.8611614321      207.8592420138
O                68.4334489667       53.7526782114      207.8879439670
C                71.0769952569       54.4098096446      205.7874852935
C                70.1527485715       53.8264371207      204.7607816845
C                69.4865139584       52.6058382921      204.9283157284
C                69.9207055638       54.5469049954      203.5667653192
C                68.5865054727       52.1549754564      203.9996502535
C                69.0383923877       54.0846928783      202.6437141724
C                68.3613316940       52.8882944779      202.8626097697
H                72.1064466630       56.0291142271      207.1655893290
H                69.6046958519       55.6090437316      206.7934055446
H                71.6617837237       55.1098667376      205.3425312728
H                71.6933359491       53.6269465536      206.1022439038
H                69.6639901865       52.0766676931      205.7554995538
H                70.4178483438       55.3996235140      203.4297506117
H                68.1341610396       51.2725877674      204.1303445512
H                68.8960099649       54.5999191475      201.8003514072
H                67.7280235006       52.5432506528      202.1595117534
N                69.5629439165       53.4830095868      210.8422931555
C                68.9873492618       54.0709656073      212.0769814055
C                67.6565364693       54.6982143101      211.8042567195
O                66.7199934077       54.5320616628      212.5995625179
C                69.9107075358       55.0149653123      212.7529421074
H                70.2729946833       53.9826699983      210.5195382404
H                68.8269709598       53.2413654862      212.7330926932
H                69.5008715818       55.3618873096      213.6117710399
H                70.8019678831       54.5237336101      213.0067172969
H                70.1365658567       55.7690149162      212.1222860480
N                67.5619582329       55.4500109603      210.7115873794
C                66.3791070422       56.0603605428      210.2364570296
C                65.2895910201       54.9976995822      210.0014734005
O                64.1028707465       55.1610222973      210.3948573396
C                66.5592625456       57.0045166158      209.1129123816
C                65.3209727546       57.3996161423      208.5564498297
C                67.4003124988       58.1956239676      209.4264396740
H                68.3231012242       55.6072421744      210.1420536563
H                66.0182315968       56.6362204562      211.0433594377
H                67.0397222793       56.4319116953      208.3459151446
H                65.4243747375       58.0745385345      207.7886232961
H                64.7260442465       56.6324944712      208.2413098304
H                64.7763994754       57.9039765098      209.3056677019
H                67.5669753123       58.7517417091      208.5954853696
H                66.9837327888       58.7086392143      210.1656022880
H                68.3407388686       57.8396173826      209.7493529737
N                65.6678165355       53.8760501258      209.4321404964
C                64.7451547361       52.7422407542      209.3091663364
C                64.1239938408       52.3505466320      210.6543061401
O                62.9258347913       52.0602120671      210.7543502050
C                65.2817229504       51.5924777556      208.4992087757
C                65.8187702466       51.9781262809      207.1758821258
C                64.2936413362       50.5136810234      208.5263197640
C                66.5356211929       50.9040759728      206.4534323099
H                66.5437126145       53.6765475883      209.1274074377
H                63.9484366582       53.1221829606      208.7367333999
H                66.1426768128       51.2335653852      209.0448702628
H                64.9934042378       52.2147933315      206.6046793971
H                66.4210166920       52.7819839283      207.2593302756
H                64.6801862907       49.6576191134      208.0383851193
H                64.0614748421       50.1887073959      209.4793838705
H                63.4546559433       50.7824389987      208.0439696513
H                66.7890602501       51.1822016727      205.5179509200
H                67.4134163095       50.6754943205      206.9741383411
H                65.9841566153       50.0383752884      206.4250894031
N                63.8166359595       54.2372823599      213.4017634712
C                63.0787976184       55.2426265512      214.0069848708
C                61.6568302760       55.2047507824      213.4278075143
O                60.6198288462       55.2535182585      214.1428767885
C                63.7114153730       56.4981248055      213.9249809275
C                62.7183463586       57.5882560201      214.2966071235
C                64.9840293040       56.5465341489      214.6245721151
H                64.6242927745       54.4929737405      212.9474869143
H                62.9572128384       54.9900331187      215.0180739714
H                63.9602928726       56.7745972613      212.9308559867
H                63.1787997560       58.5383620738      214.2987956204
H                61.9225262378       57.6289555451      213.6964748561
H                62.4213589326       57.4367885767      215.2784815110
H                65.4710454014       57.4699027971      214.5097180671
H                64.8153770442       56.4492038208      215.6391121503
H                65.6088175619       55.8232032800      214.3129984835
N                61.6213794064       55.1675094093      212.0612715087
C                60.4660606843       55.1903579149      211.2805338126
C                59.5580124787       53.9802819360      211.5934555299
O                58.3353590075       54.0410116023      211.7910690641
C                60.7543726095       55.3766241984      209.8408343331
C                61.1408471738       56.8147468280      209.6275765525
C                59.6378444975       54.8012748522      208.9042961081
C                61.5389265765       56.8573117559      208.1415477065
H                62.4150910195       55.1521725032      211.5462225675
H                59.8577141518       56.0084179721      211.5894011453
H                61.5436174729       54.7509457097      209.5820147540
H                60.3442323102       57.4092209409      209.7130794836
H                61.9273792163       57.0598213408      210.1686370233
H                59.8655719618       54.9540289917      207.9478406733
H                59.4688442828       53.8300820509      209.1254574870
H                58.7685008958       55.3360250665      209.1470041474
H                61.8492600185       57.8704282948      207.9736538126
H                62.3749855053       56.2983010525      207.9893674871
H                60.7992416784       56.6561620631      207.5308308677
N                63.4312809403       54.5592139988      201.2562939099
C                64.5770521269       55.3693360753      201.5901700877
C                65.6331791470       55.3768069090      200.4712989222
O                66.1373807338       56.4812239279      200.1306318370
C                65.1008033516       55.1185870182      202.9014401499
C                64.4459056234       55.7783261555      203.9842649054
C                65.0787780545       55.2337341455      205.3097327841
C                64.5392593889       57.2222877888      203.9000163343
H                63.2019461824       53.9314391247      201.9192112671
H                64.1925945403       56.3579279859      201.5590308898
H                65.1155006172       54.0973073523      203.0368630023
H                66.1090424014       55.4184582129      202.9038988649
H                63.4322467793       55.5563609706      204.0456497189
H                64.5934936237       55.6447905313      206.1271564048
H                64.9448708145       54.2149605585      205.3567583705
H                66.0536708942       55.4633040480      205.3401535054
H                64.1372950696       57.6851817987      204.7396393680
H                65.5209727939       57.5088329833      203.8381348721
H                64.0355429649       57.5611086091      203.0841152580
N                64.6886982848       57.0906714721      197.2128203566
C                64.7588427717       58.5145958875      197.3721440105
C                66.1325394375       59.0915213039      197.4107020141
O                66.2488878303       60.2362268467      196.8968644061
C                63.9080076500       58.8820729865      198.4751696951
C                62.4043994882       58.6280420038      198.5057284970
C                61.8271909018       58.7824810465      199.8950669948
C                61.6225792428       59.5603058565      197.6727251930
H                64.3591327211       56.6012172636      197.9840129908
H                64.3179243767       58.8943737704      196.5104302375
H                64.3040023743       58.4878013119      199.3578113731
H                64.0170389596       59.9410529196      198.6235291949
H                62.3358474988       57.6844426922      198.1424687411
H                60.8273536241       58.5900642919      199.8760961092
H                62.2651527898       58.0672491576      200.5269340363
H                62.0142509580       59.6932490401      200.2844899155
H                60.6650148042       59.3529876368      197.7012522276
H                61.8331753951       60.5271657643      197.9622625356
H                61.9859026512       59.4774560766      196.6882299248
N                67.1026941420       58.3237153302      197.9794295406
C                68.5465036438       58.6368321085      197.9518582762
C                68.9843232673       58.6844336298      196.5591041232
O                69.5329428260       59.7386680009      196.1348194959
C                69.4440787969       57.7880046750      198.7709599116
C                69.4871297692       57.8067406833      200.4507105079
C                69.9467448001       59.0503251672      201.0646556965
O                69.4472099688       59.5283564639      202.0444695916
N                70.7852179957       59.7464018095      200.3753944822
H                66.9262171505       57.5191569124      198.5119969651
H                68.5929918201       59.5889720361      198.3856334413
H                69.2132873438       56.7948807095      198.5405500953
H                70.4027527976       57.9627406237      198.5117016707
H                68.4883823635       57.6226567930      200.6951717498
H                70.0516379892       57.0368261244      200.7144753546
H                71.1179011609       59.4654639640      199.5286648125
H                71.1352410597       60.5816900017      200.6925297553
N                66.5070950162       63.1004625132      195.8459404207
C                65.5277438911       63.8696674862      196.6838889380
C                66.0287225848       64.0932845136      198.0462215708
O                66.2885563761       65.2873155159      198.4420742370
C                64.2724511126       63.1925333098      196.7524137380
C                63.3074155954       63.7271922883      195.8144883202
C                63.6728650942       63.1876211873      194.4057639767
C                62.0166106960       63.2620349310      196.1285157624
H                66.2960933220       62.1890162156      195.7392180130
H                65.4881807840       64.7717650310      196.1850076457
H                64.3836505512       62.1825179180      196.5611247067
H                63.8829985427       63.3021810766      197.6894861235
H                63.2682721912       64.7456868498      195.7361718961
H                63.0148353207       63.5534746774      193.6840110780
H                64.6091728270       63.5418797830      194.1466269150
H                63.6645233824       62.1857567689      194.3807084955
H                61.2614419093       63.6234035945      195.4854177003
H                61.9283083407       62.2369504807      196.1066134560
H                61.7272886838       63.5750423945      197.0758552558
N                66.2234394394       62.9606148329      198.8292438085
C                66.8844333436       62.9734419776      200.1037248474
C                68.4210248907       63.0115968801      200.0629843318
O                69.0043697123       62.0514969619      199.4076551041
C                66.5464881713       61.7439995707      200.7862190156
C                65.1713966087       61.5374868889      201.3472678213
C                65.1723301618       60.2614762109      202.1643477829
C                64.6913061515       62.6730016915      202.0741739412
H                66.0287577112       62.1174473032      198.5068144707
H                66.5951944103       63.8313234323      200.5905668744
H                66.7464002354       60.9459925247      200.2085031108
H                67.1539961553       61.6690534546      201.6510609780
H                64.4740811162       61.4318827682      200.5840794990
H                64.2049165698       60.0790838771      202.5442030132
H                65.4173615315       59.4548483073      201.5950126474
H                65.7929046781       60.3405960368      202.9599550822
H                63.7726999589       62.5325115662      202.4836124679
H                65.3530098715       62.8480047577      202.8818231551
H                64.7002266325       63.5182154652      201.5095410800
N                69.0638875621       64.0856323232      200.6797808312
C                70.5174883027       64.0352715442      200.6639721857
C                71.0379431959       62.9809233758      201.7173330824
O                71.9811973918       62.1761387993      201.5049051910
C                71.1252159548       65.3299165959      200.6706115936
C                71.3895998836       65.8787411187      199.3617937410
S                71.6546123811       67.6288785631      199.4379262255
C                71.1179497545       67.9713296261      197.6017887754
H                68.6724942489       64.7992347267      201.0619666400
H                70.8424919175       63.5766374458      199.7531611907
H                70.5325054412       65.9623493087      201.2347195360
H                72.0448923951       65.2837791604      201.2047461864
H                72.2245815123       65.4772872485      198.9615165460
H                70.5784650036       65.6906437954      198.7771689542
H                71.1044546834       69.0023773313      197.5114742647
H                71.8028761940       67.5626157831      197.0260416875
H                70.1885921619       67.6088596307      197.4950809726
N                70.3671433369       63.0133334504      202.9018242245
C                70.6067948719       62.3704524160      204.1587050431
C                69.3238350667       61.7604280652      204.5013818405
O                68.2609304757       62.3482585744      204.3878838538
C                71.1763467734       63.4181237120      205.1092198860
O                71.9679389432       64.5297740286      204.5675936788
H                69.6468102591       63.6649075565      202.9952296091
H                71.3728342016       61.6930197480      204.0442157999
H                70.3472440932       63.8919168104      205.5734232925
H                71.6407584342       62.9110707936      205.9068348407
H                72.7021577026       64.5625891175      205.1804183894
N                69.3266094071       60.5567543463      204.9089534283
C                67.9764281401       59.9515707469      205.1877196478
C                67.1983860380       60.6727789156      206.2513891695
O                66.0068280624       60.6512851521      206.1890213693
C                68.2536002870       58.4598739158      205.5440048381
C                69.6952770579       58.2938621709      205.4503706705
C                70.4001446790       59.7150102876      205.2256455132
H                67.4228731774       59.9152517748      204.3396553338
H                67.9717095364       58.2997913067      206.5317154125
H                67.7733425338       57.8400626570      204.9382134869
H                70.0901173099       57.8485947688      206.2974595927
H                69.9289152713       57.6956786671      204.6491599367
H                70.8924606435       59.9501664651      206.1111694549
H                71.1006276274       59.6136162473      204.4907454662
N                67.8193477700       61.3223015098      207.3001203338
C                67.1298491611       62.0863440460      208.2497226012
C                66.3508847343       63.3746267243      207.6335746205
O                65.5067483970       63.9752463779      208.2899271270
C                68.0495670168       62.6922020315      209.2509841251
O                68.8535564420       63.8860065002      208.7291762304
H                68.7827918421       61.4607319441      207.2740009253
H                66.4611353102       61.5043879336      208.6630205353
H                67.5159819021       63.0979829636      210.0560203740
H                68.6705533147       61.9669749966      209.6400083595
H                69.4595577331       64.0808395570      209.4131693915
N                66.6753903736       63.8275027489      206.4277102741
C                66.0636947113       64.9062226390      205.7920680995
C                64.5553592874       64.6299339665      205.5702180709
O                63.7533772582       65.6567200178      205.1925699887
C                66.7668032950       65.3447220269      204.5414143893
C                68.2049834471       65.7909176222      204.6091573631
O                68.4189149796       66.1421956056      205.7866370515
O                69.1029257037       65.8073763104      203.6771875864
H                67.4448669411       63.4818795646      205.9151443384
H                66.1249701141       65.7505142998      206.4386070941
H                66.7112809999       64.5768723767      203.8595965939
H                66.2154124656       66.1423528729      204.1034824412
N                64.1864995335       63.3716312474      205.7248403150
C                62.8435075432       62.8991179126      205.4744638785
C                61.9650420485       63.2533403040      206.5964249461
O                60.7868200804       63.0917383242      206.5338388357
C                62.7973629170       61.4312406914      205.1706038552
C                61.5433982153       60.8540609845      204.9427088623
C                61.6258116077       59.7758887228      204.0873087084
C                61.1194023546       60.1034014602      205.9879543475
H                64.8009213953       62.6786206247      205.9381696930
H                62.4849419895       63.3788575177      204.6292854262
H                63.4002712009       61.2403428325      204.3516712887
H                63.2675109074       60.9465480280      205.9760726983
H                60.8831260590       61.5826665497      204.7047063504
H                60.7375278472       59.2984679948      203.8950971429
H                61.9322656666       60.1395239421      203.1212070815
H                62.3304061642       59.0861228558      204.3355787429
H                60.1650292483       59.7303696135      205.8792505325
H                61.7460045235       59.4099336913      206.3155214669
H                60.9878042257       60.7823762274      206.8467745887
N                62.4359171459       63.6123532976      207.7033931509
C                61.6574761449       64.0262691299      208.8383390830
C                61.1950253404       65.4429889059      208.7132395629
O                60.1357760038       65.7244599183      209.2141465005
C                62.4618423228       63.9220238872      210.1646155099
C                63.0875304516       62.6169663950      210.5423200755
C                62.4252445413       61.4027044173      210.4191685030
C                64.3121798157       62.5296647229      211.0745007932
C                62.9882475245       60.1592283732      210.7948407254
C                64.9413578765       61.3724090301      211.4409524252
C                64.3040645190       60.1628195196      211.3034358584
O                64.9014543531       59.0458534739      211.6570132794
H                63.4020069436       63.6264857125      207.9123459812
H                60.8758728532       63.3928351540      208.9205542221
H                63.2043389055       64.6289308357      210.1468241954
H                61.8080780098       64.1736649344      210.9366150452
H                61.4910541864       61.3972297884      210.0194496473
H                64.8338833962       63.4100868208      211.2434342602
H                62.5229371505       59.3125142879      210.6354050183
H                65.8686992762       61.3914418896      211.8490565182
H                65.7874330591       59.2288174569      211.8718487620
N                60.1593244848       68.4468367536      202.8859510862
C                60.3704544512       67.4245167272      201.9688308382
C                59.1728985897       66.6430786048      201.6174428439
O                59.1883227623       65.8967822173      200.6819962440
C                61.5242526905       66.5268103597      202.4518719025
O                61.2494450729       65.9695301498      203.6108734758
H                60.3015832861       68.1754547242      203.8072244500
H                60.7232237678       67.8551923002      201.0670275456
H                61.6497234572       65.7493897609      201.7598364194
H                62.4059453805       67.0444383714      202.4872801272
H                61.0892531366       66.6370138773      204.2536136697
N                58.4282620254       64.7063422801      197.8195134506
C                58.3842278917       63.3094364011      197.9124018077
C                57.1450691855       62.8048607407      197.2910649500
O                57.1504026416       61.9662439909      196.4222440651
C                58.6145624462       62.6869721771      199.3461329079
C                59.9601752670       62.9434991399      199.7740910768
C                58.2581239488       61.2818654289      199.2996012442
C                60.0869938130       63.0548537608      201.2298386374
H                58.5275586501       65.1238302796      198.7579261805
H                59.1841566605       62.9686479559      197.3533745074
H                57.9534767855       63.1898119244      199.9875304851
H                60.5987410917       62.2219964569      199.4757932761
H                60.3186436503       63.8637199901      199.4237032508
H                58.4617704407       60.8629989014      200.2411150168
H                57.2651956113       61.1318492253      199.1229869332
H                58.8206946099       60.7895575262      198.6192985756
H                61.0606601549       63.2300716394      201.5284346878
H                59.5004810217       63.7985102324      201.6094625680
H                59.7950253369       62.1617168771      201.6638860476
O                66.8856752399       59.3523071022      213.5734835628
H                67.6122533262       59.8975042722      213.3655261440
H                66.3926082163       59.9435566507      214.1185588385
N                68.2769015659       71.6835340688      195.8459404207
C                69.2562526909       70.9143290959      196.6838889380
C                68.7552739973       70.6907120684      198.0462215708
O                68.4954402060       69.4966810661      198.4420742370
C                70.5115454694       71.5914632722      196.7524137380
C                71.4765809866       71.0568042938      195.8144883202
C                71.1111314879       71.5963753947      194.4057639767
C                72.7673858860       71.5219616510      196.1285157624
H                68.4879032600       72.5949803665      195.7392180130
H                69.2958157981       70.0122315511      196.1850076457
H                70.4003460309       72.6014786640      196.5611247067
H                70.9009980394       71.4818155054      197.6894861235
H                71.5157243909       70.0383097322      195.7361718961
H                71.7691612613       71.2305219046      193.6840110780
H                70.1748237551       71.2421167990      194.1466269150
H                71.1194731997       72.5982398131      194.3807084955
H                73.5225546727       71.1605929876      195.4854177003
H                72.8556882414       72.5470461013      196.1066134560
H                73.0567078982       71.2089541875      197.0758552558
N                72.8066213198       68.4730214802      208.0729220031
C                73.1315795658       67.0834324064      207.8613280567
C                74.3308744212       66.9652402792      207.0458654793
O                74.4576031988       67.7601348107      206.1358962479
C                72.0198398841       66.2949252042      207.3925595174
O                70.8492904430       66.4079272508      208.3181845705
H                71.9575303288       68.6999328065      207.6985551514
H                73.3857399921       66.6616346130      208.8178796750
H                71.6879438642       66.6814246350      206.4872097338
H                72.2411017947       65.3106738269      207.2656113866
H                70.2057006413       65.8214819492      208.0281950591
N                75.3956686558       64.5246007539      204.9995174213
C                75.0044284111       64.1017055235      203.7561775356
C                74.9509343257       65.1279719134      202.5058954278
O                75.1517540031       64.7673711790      201.3090738539
H                74.8253517593       64.2506656983      205.6841891657
H                75.7425881278       63.3741434370      203.4001289959
H                74.1370688458       63.5522725593      203.7233983027
N                74.6246720972       66.3371598285      202.8859510862
C                74.4135421309       67.3594798548      201.9688308382
C                75.6110979924       68.1409179772      201.6174428439
O                75.5956738197       68.8872143647      200.6819962440
C                73.2597438915       68.2571862224      202.4518719025
O                73.5345515091       68.8144664322      203.6108734758
H                74.4824132959       66.6085418578      203.8072244500
H                74.0607728143       66.9288042818      201.0670275456
H                73.1342731248       69.0346068212      201.7598364194
H                72.3780512015       67.7395582107      202.4872801272
H                73.6947434454       68.1469827048      204.2536136697
N                77.4752297087       67.2615154696      197.8927831231
C                76.5281707067       67.8742669712      197.0171426342
C                76.5025657041       69.4063152586      196.8104695121
O                76.5713183551       69.9186981486      195.6794755365
C                75.1952173792       67.3692192650      197.4780966973
C                75.4949036311       66.0375779948      197.9429887061
C                76.8562482429       66.1241120477      198.5265103243
H                76.8198673302       67.4755812194      196.0581824797
H                74.8032095273       67.9565654998      198.1688920381
H                74.5352793234       67.2890949166      196.6613370788
H                74.7963622006       65.7272105057      198.6495119645
H                75.5010015911       65.3237065416      197.2010535359
H                76.7832516775       66.2366490936      199.5947240177
H                77.4042359921       65.2516159417      198.4163207457
N                76.3557345567       70.0776543019      197.8195134506
C                76.3997686903       71.4745601809      197.9124018077
C                77.6389273965       71.9791358414      197.2910649500
O                77.6335939404       72.8177525912      196.4222440651
C                76.1694341358       72.0970244050      199.3461329079
C                74.8238213150       71.8404974422      199.7740910768
C                76.5258726332       73.5021311532      199.2996012442
C                74.6970027690       71.7291428212      201.2298386374
H                76.2564379319       69.6601663024      198.7579261805
H                75.5998399216       71.8153486262      197.3533745074
H                76.8305197966       71.5941846576      199.9875304851
H                74.1852554903       72.5620001251      199.4757932761
H                74.4653529317       70.9202765919      199.4237032508
H                76.3222261414       73.9209976807      200.2411150168
H                77.5188009708       73.6521473568      199.1229869332
H                75.9633019722       73.9944390558      198.6192985756
H                73.7233364272       71.5539249426      201.5284346878
H                75.2835155603       70.9854863496      201.6094625680
H                74.9889712451       72.6222797050      201.6638860476
N                68.8471951431       59.3689719858      218.0750517586
C                68.2069374314       59.2390004227      216.8171698999
C                66.7484108961       59.5534127986      216.9894035702
O                66.1318563791       60.2286095387      216.1768597974
C                68.3655894017       57.8729012888      216.0802927722
C                69.7876426444       57.5036314980      215.6652853961
C                70.3998878337       58.4483182594      214.6386042797
O                69.7293333960       58.8288796445      213.5541063428
O                71.5447331429       58.8763602866      214.9255986655
H                69.2520295230       58.5042489364      218.3917128248
H                68.6681228615       59.9339868855      216.1958639076
H                68.0339744398       57.1548512022      216.7429753457
H                67.7940211092       57.8834913022      215.2579169757
H                70.3923515939       57.5477012971      216.5188288665
H                69.7967889843       56.5624432251      215.3129047231
N                66.5337500341       63.3557356324      217.2986670561
C                66.6941426304       63.8688298356      215.9518139653
C                65.2965628138       63.8264833056      215.1125856445
O                64.9582424675       64.7376790218      214.3195410371
C                67.7443119750       63.2439070517      215.1452407677
C                68.1100684147       63.7193663888      213.8431663831
C                68.9108675694       62.6622912280      212.9495114359
C                70.2144177738       62.2841665517      213.5567181753
N                70.8202093324       61.3475437065      212.7381590794
H                67.1894815024       62.6837012679      217.4765108629
H                66.9132538633       64.8792780648      216.0193935068
H                68.6144532944       63.1889666146      215.7244488491
H                67.4757552873       62.2132960457      215.0229994428
H                67.2783122320       63.9876871443      213.3030985809
H                68.7228124168       64.5459504387      213.9091103136
H                68.3135526741       61.8482499779      212.8521413256
H                69.0768756557       63.0805197680      212.0269534551
H                70.7954101809       63.1156710915      213.7030636219
H                70.0460696145       61.8409053880      214.4741707505
H                71.7200694556       61.0873674217      213.0725844369
H                70.3464683569       60.5607857434      212.5568245849
H                71.0580476186       61.7600538067      211.8475402952
N                75.1191618579       63.2141803933      212.3743700615
C                74.8964911208       62.0530700388      211.5600793422
C                74.1575834384       60.7671388385      212.3494513278
O                73.9089977862       60.7759993134      213.6389022324
O                73.7570477490       59.7372076200      211.7074252495
H                74.6995199521       63.9726806906      212.0726124944
H                74.3164931606       62.2496905571      210.7796381091
H                75.7986505957       61.6637714356      211.2793535742
H                70.2614443689       53.2093360414      208.3696619107
H                69.8601262786       52.6514023927      211.0158215924
H                64.6902890596       52.3253224829      211.4781225440
H                64.0720478601       53.6371615661      214.0219406990
H                59.9501381914       53.0620518516      211.6490517315
H                62.7145076624       55.0891697285      201.1322657176
H                65.9038632638       54.5194468218      200.0335046901
H                64.1368939718       56.8915614392      196.5302757098
H                68.8468092111       57.8923355178      195.9644021261
H                66.5439386627       63.4593490383      195.0214144916
H                61.7588173470       66.1120814272      208.2290352969
H                60.7249130146       69.1256388083      202.7146694894
H                58.3390498354       66.7339531389      202.1619041134
H                59.1304231107       64.9517535573      197.3128152019
H                56.2575991145       63.1582300518      197.5869145790
H                68.2400579193       71.3246475437      195.0214144916
H                68.6175909819       71.4665419901      198.6619579754
H                72.7805350326       68.6443464467      208.9560795550
H                75.0039601083       66.2534807782      207.2467487058
H                76.2133594909       64.1973234697      205.1846424532
H                76.4449467466       68.0500434431      202.1619041134
H                77.9849408714       66.6840029320      197.4273007932
H                78.5263974675       71.6257665302      197.5869145790
H                69.5069507075       59.9781479408      218.0148250949
H                66.2531466456       59.2078047220      217.7864408213
H                66.6328844723       64.0271636675      217.8897311448
H                64.6718311946       63.0531241974      215.2204100098
H                74.8160811972       63.0594265398      213.2075527293
