 327 
 
N                 6.1979284259       76.4057720910       -8.2989834518
C                 6.8109048534       76.6394239437       -9.5732422193
C                 8.2855109871       77.0237454919       -9.5053218544
O                 9.0978533979       76.5116328613      -10.2555670056
C                 5.9771314536       77.7042094604      -10.2329388652
C                 4.6242149585       77.0781671278      -10.5199292323
C                 4.1237602403       77.5561741316      -11.9234460931
O                 3.2216250111       78.4362292153      -11.8146364281
O                 4.6176334294       77.0821212998      -12.9892044177
H                 5.3138798081       76.8482069430       -8.0679440470
H                 6.8023976118       75.7123849056      -10.1715081175
H                 5.9175532849       78.5601517113       -9.5652979649
H                 6.4719363093       78.0148800579      -11.1600756925
H                 4.7068508104       75.9887769774      -10.5420140182
H                 3.8727548198       77.3429536346       -9.7841970114
N                 8.6203917344       78.0043344416       -8.6709572287
C                10.0021517031       78.3870834098       -8.4344349243
C                10.7916291297       77.1908855449       -7.8808892879
O                11.8637714835       76.8232691639       -8.3512897118
C                10.1658929446       79.6002052743       -7.4769961901
C                 9.5127649401       80.9239708941       -7.9329589881
C                10.1688293445       81.8167423860       -9.0110080747
N                11.5228429754       82.3181406977       -8.7096432217
C                11.9756245376       83.4880208614       -8.1853579019
N                11.1278955957       84.4081112139       -7.7632727450
N                13.3096165629       83.7848819881       -8.1514110485
H                 7.9229545709       78.3303834226       -8.0092989973
H                10.4527353172       78.6334604027       -9.4072426341
H                 9.7177838945       79.3191335563       -6.5213305375
H                11.2379417382       79.7394605662       -7.3294899374
H                 8.5087783443       80.6839243731       -8.2892426547
H                 9.4070487886       81.5291300399       -7.0290638289
H                10.2541188547       81.2462880367       -9.9394375363
H                 9.5011545110       82.6610150654       -9.1842784170
H                12.2494724650       81.6639891941       -8.9745226975
H                10.1361587424       84.2353970685       -7.8020790959
H                11.3673786289       85.2409958994       -7.2370870415
H                13.9921610415       83.0492262492       -8.2672201663
H                13.5733488713       84.6139977308       -7.6437929937
N                10.2740693914       76.6169857982       -6.8032086121
C                10.8463662201       75.4208026487       -6.2107109735
C                11.3940408617       74.5699850920       -7.3710879081
O                12.5013578482       74.0508325121       -7.3707094120
C                 9.7941262957       74.5825349132       -5.4079990043
C                 9.0122698708       75.2567950738       -4.2262805529
C                 7.9247571505       74.4257548346       -3.4626613270
N                 8.3086813023       74.3305923556       -2.0572036875
C                 9.0562381155       73.3498643949       -1.4993525748
N                 8.8809431308       72.0522641147       -1.7786996617
N                 9.9128591534       73.6590981590       -0.5214157839
H                 9.3242555226       76.8564030736       -6.5359220614
H                11.6892191664       75.6976183736       -5.5671672917
H                 9.0842189305       74.2007055856       -6.1434690887
H                10.3444318159       73.7228735024       -5.0195079691
H                 9.7646461766       75.5606506199       -3.4940685543
H                 8.5756067693       76.1783426838       -4.6016800136
H                 6.9488053344       74.9052888513       -3.4895991491
H                 7.8247701705       73.4292401744       -3.8964130223
H                 8.4761108639       75.2453045132       -1.6431364747
H                 8.2690754219       71.7792926685       -2.5354072969
H                 9.5567368644       71.3680233318       -1.4673099958
H                10.1137208918       74.6411113780       -0.3360602589
H                10.5769550051       72.9766367748       -0.1855936870
N                10.5227986846       74.3925909179       -8.3562155460
C                10.8859862991       73.6045053316       -9.4918374036
C                12.0106490666       74.2448279175      -10.3287551213
O                13.1280877906       73.7457841126      -10.3507595562
C                 9.6341936073       73.2955311389      -10.2973240904
C                10.0277693140       72.6086027702      -11.5913486652
C                10.9395471100       71.3173645467      -11.3918595252
O                11.7669521436       71.2874732858      -10.4618519506
O                10.7330273067       70.4014439131      -12.2333032219
H                 9.6193489896       74.8459946927       -8.3416810651
H                11.3381616675       72.6773878167       -9.1238972390
H                 8.9940113128       72.6517026138       -9.6925144591
H                 9.1028720798       74.2273865123      -10.5050068921
H                 9.1482693789       72.3033048931      -12.1621065781
H                10.6096683188       73.2906135438      -12.2163848360
N                11.7525676790       75.3460474688      -11.0370052951
C                12.7561283602       75.9649442836      -11.8751170606
C                14.1021353550       75.9811280635      -11.1954289256
O                15.1284814786       75.6828069185      -11.7989361811
C                12.4393701465       77.4499806977      -12.0670727782
C                11.1992246295       77.6811390968      -12.9213092604
C                10.5306404396       79.0405254078      -12.5278463098
O                 9.3075878575       78.9990344281      -12.2605221194
O                11.2886154274       80.0349958702      -12.4981919047
H                10.8453350985       75.7977261721      -10.9819274552
H                12.8310587873       75.4395969443      -12.8357759300
H                12.2879790511       77.8946948170      -11.0814948428
H                13.2981408091       77.9552825319      -12.5126237980
H                11.4574241880       77.7129492963      -13.9815270533
H                10.4550293843       76.8976638975      -12.7666748622
N                14.0636674698       76.5015811845       -9.9736044581
C                15.2419851076       76.7456148935       -9.1807231691
C                16.0237470703       75.4507408831       -8.9571481945
O                17.2215381109       75.3861609170       -9.1761374074
C                14.8626550842       77.3800473353       -7.8382802040
C                15.7149281085       78.5686008844       -7.3724248637
C                15.2056568024       79.9784399006       -7.8432653678
O                15.4884843402       80.9480771978       -7.0970292730
O                14.5577498109       80.0238216174       -8.9140718256
H                13.1667532257       76.6702888964       -9.5334871256
H                15.9043748414       77.4091246402       -9.7539214665
H                13.8288102865       77.7142914344       -7.9146165069
H                14.9088484749       76.5972347237       -7.0761742178
H                15.7573849695       78.5910333268       -6.2822650794
H                16.7433842459       78.4683095466       -7.7335327072
N                15.3641756744       74.4036122681       -8.4390135968
C                16.0112701517       73.1083948696       -8.2788547055
C                16.3169911959       72.3884368515       -9.6081640445
O                17.1294284019       71.4715195910       -9.6250251599
C                15.1500355325       72.1680328652       -7.3968217563
O                14.0625422837       71.5261318818       -8.0412136061
H                14.3550410601       74.4237647338       -8.3327917152
H                16.9717167070       73.2733480261       -7.7766955411
H                15.7789717490       71.3519889163       -7.0338249935
H                14.7713121408       72.7638830455       -6.5552790826
H                13.5897783785       72.1497963679       -8.6074643546
N                15.6492793188       72.8640220674      -10.6662525469
C                15.6443928684       72.3002685762      -12.0049524379
C                17.0409676499       72.4626229074      -12.6141888658
O                17.6295026440       71.5789302857      -13.2361269165
C                14.5941576765       72.9940679432      -12.8846434334
H                14.8594712016       73.4686799409      -10.4849774454
H                15.4216204228       71.2238724990      -11.9622160014
H                14.6312887650       72.5588448770      -13.8809703015
H                13.6075079369       72.8147836405      -12.4674757927
H                14.7914700298       74.0561052828      -12.9453972575
N                17.5825110089       73.6646434315      -12.3612274141
C                18.9249513501       73.9579959099      -12.8088494679
C                20.0219932240       73.7815156239      -11.7269273913
O                21.1936733500       73.8070115347      -12.0845441920
C                18.9845682370       75.2905264138      -13.5396280620
H                17.0097137190       74.3901764327      -11.9487117843
H                19.1590064271       73.1649667702      -13.5282605676
H                20.0092069364       75.5164422095      -13.8203146641
H                18.3584378375       75.2558300528      -14.4258914506
H                18.6155993531       76.0810644771      -12.8858004448
N                19.6679320182       73.4798141953      -10.4646045679
C                20.6144562748       73.0557571187       -9.4186995098
C                21.5400019978       71.9035408540       -9.8566798376
O                22.7195480701       71.9421003215       -9.5363347653
C                19.8741260367       72.5484056755       -8.1748532711
H                18.7022249529       73.5827247775      -10.1847753837
H                21.2649134860       73.8987899755       -9.1614315567
H                20.5856523559       72.0974492563       -7.4884555610
H                19.3864141212       73.3851448999       -7.6798701902
H                19.1254864876       71.8106639532       -8.4522866835
N                20.8566283223       70.9284569558      -10.4967455613
C                21.2174293881       69.6270757622      -11.0682132661
C                21.8726338590       69.9382785089      -12.3929535712
O                23.0817654354       69.8124893838      -12.4854612593
C                20.0196901303       68.7001167720      -11.2258885705
H                19.8738023028       71.1455976059      -10.6179399028
H                21.9733634260       69.1603012742      -10.4200624192
H                20.3227250133       67.8218179289      -11.7877981747
H                19.6593025196       68.3851973211      -10.2501283854
H                19.1982972184       69.1869896904      -11.7515198739
N                21.0872065972       70.4545548907      -13.3435489322
C                21.5760314387       70.9172021587      -14.6429654101
C                23.0231752083       71.4757522827      -14.4880381765
O                23.8880784224       71.2865452692      -15.3327785003
C                20.5407076574       71.9218593524      -15.2108627397
C                20.6020505023       72.2652122117      -16.7095061280
C                20.3084553980       71.1979512068      -17.8442401749
O                19.5594665294       71.5860171097      -18.7731872297
O                20.9041179921       70.1027270974      -17.7869640657
H                20.0870790574       70.5023580295      -13.2084223159
H                21.6581980817       70.0760926193      -15.3481288151
H                19.5456337790       71.5353936521      -14.9762251133
H                20.6934830978       72.8665211992      -14.6791086484
H                19.9249540398       73.1005385469      -16.8956767327
H                21.6232032373       72.5945566267      -16.9319465521
N                23.2491389438       72.1820404438      -13.3600949012
C                24.5313491898       72.7573521345      -13.0349119821
C                25.5054855426       71.8995524832      -12.2723428076
O                26.5747798559       71.6609477160      -12.8352827633
C                24.4298004931       74.0502840295      -12.2225051952
C                25.7542826661       74.4431667514      -11.5584753823
C                23.9558564622       75.1292852355      -13.1812913951
H                22.4666095656       72.4642059558      -12.7859151410
H                25.0248388102       72.9482996120      -14.0004098383
H                23.6690366578       73.9034115241      -11.4501473401
H                25.6875790262       75.4848394545      -11.2512234180
H                25.9678321628       73.8495099360      -10.6789485203
H                26.5747704677       74.3465979118      -12.2649070565
H                23.7732950374       76.0629872583      -12.6540286163
H                24.6930544905       75.3037005856      -13.9607480479
H                23.0208077855       74.8221725482      -13.6428504583
N                25.3501741709       71.6328777857      -10.9699934634
C                26.4699608813       70.9196780697      -10.3651416375
C                26.8706124390       69.7734746371      -11.3302853592
O                28.0474229836       69.4446543957      -11.4613189368
C                26.2863862933       70.4724039578       -8.9081347481
C                24.9658248837       69.7652013492       -8.5490079661
C                24.5942180984       68.3286575912       -9.1386806870
O                25.5159600437       67.5613466546       -9.4809297377
O                23.3703899056       68.0432488932       -9.1657494382
H                24.4487296034       71.6715362394      -10.5140322275
H                27.3365461211       71.6006296446      -10.3894881365
H                27.1220102297       69.8078764472       -8.6788687408
H                26.3549531451       71.3571081937       -8.2733804073
H                24.9554757761       69.6059599553       -7.4658945865
H                24.1146031879       70.4079810884       -8.7750516250
N                25.8866203077       69.2161125043      -12.0437057155
C                26.0933678116       68.1215474837      -12.9698741507
C                27.3116014113       68.3594682186      -13.8284616690
O                28.1315304861       67.4823369829      -14.0697138761
C                24.8929440201       67.9726670557      -13.9064237346
C                25.0843805019       66.8804324705      -14.9523745359
C                24.6509669944       67.2480138006      -16.4318500321
O                23.9297463580       68.2548799323      -16.5932060064
O                25.0675674519       66.4173228401      -17.2842666342
H                24.9249674745       69.4780652979      -11.8884765166
H                26.2494361349       67.2191044834      -12.3764114934
H                24.0095228794       67.7701933264      -13.2952530741
H                24.6942781383       68.9223591689      -14.4123534827
H                26.1182142894       66.5460331231      -15.0006730913
H                24.4339957571       66.0347500334      -14.7117752266
N                27.3292997801       69.5703834011      -14.3596397539
C                28.4572784141       70.0588262515      -15.0911054273
C                29.7153694635       69.9524868106      -14.2351472913
O                30.5831444440       69.1271463722      -14.5139263892
C                28.1587777238       71.4746577902      -15.5503688240
C                29.3548490616       72.1437932623      -16.2315288195
C                29.0002955135       73.0422241248      -17.4281002203
N                28.7026272324       72.2686150795      -18.6426763493
C                28.9540891851       72.5742815022      -19.9232282292
N                29.7703468559       73.5648346085      -20.2760960512
N                28.4252543621       71.8215564528      -20.8989141357
H                26.6751200826       70.2661625362      -14.0292600011
H                28.6244334522       69.3892932041      -15.9474198955
H                27.2996997101       71.4114845686      -16.2229098246
H                27.8380854321       72.0562113732      -14.6861524994
H                29.8816875074       72.7605007583      -15.5050501021
H                30.0537847941       71.3807640567      -16.5781774469
H                28.1298649479       73.6561555664      -17.1762175208
H                29.8468905316       73.6981174332      -17.6272211079
H                28.0590506551       71.5035969674      -18.4817426662
H                30.2574566070       74.1411443701      -19.6069750092
H                29.9290514453       73.7822916522      -21.2453059985
H                27.7579116178       71.0930380652      -20.6996341379
H                28.5463695580       72.0567847558      -21.8709447665
N                29.9265302717       70.8344537824      -13.2604403024
C                31.2557828335       70.8054796513      -12.6975910049
C                31.6291111158       69.4177332710      -12.1476540451
O                32.8108087987       69.0964383476      -12.0704775484
C                31.4698952980       72.0318582734      -11.8081599742
O                30.3036350088       72.1455350995      -11.0271189606
C                31.6931676431       73.3110918843      -12.6279213700
H                29.1990914568       71.3608214787      -12.7979117857
H                31.9601482448       70.9050900675      -13.5398602076
H                32.3422740719       71.8393358729      -11.1655714616
H                30.4324533755       72.8343687358      -10.3628164428
H                31.5644657761       74.1723491508      -11.9759296279
H                32.6929985763       73.3432748140      -13.0420442124
H                30.9622333719       73.3751666031      -13.4280339769
N                30.6612971260       68.5449072772      -11.8991639713
C                31.0037353970       67.1598052749      -11.6698122580
C                31.9098177136       66.6204134961      -12.7574236630
O                32.9284194601       65.9749682130      -12.5376910856
C                29.7833984292       66.2405414785      -11.7390447842
C                30.2414932515       64.7842131191      -11.9097989863
C                29.0830337384       63.7966889479      -11.8478350129
N                28.2809341183       63.8001677652      -13.0636864295
C                27.0514502253       64.2828801197      -13.2234138096
N                26.5156142540       65.1087669883      -12.3299504660
N                26.3184556666       63.8760977293      -14.2625697865
H                29.6878370967       68.8189527982      -11.8542104116
H                31.5228972075       67.0585261100      -10.7078224988
H                29.2052509552       66.3482206040      -10.8188140964
H                29.1581555804       66.5459924547      -12.5767716885
H                30.7438393221       64.6479328653      -12.8623989543
H                30.9444994901       64.5425702679      -11.1121248862
H                29.4766581172       62.7858470693      -11.7277450406
H                28.4508137201       64.0085868056      -10.9838754673
H                28.6239193216       63.1831816478      -13.7866134022
H                27.0278619525       65.4148187785      -11.5174276968
H                25.5291626479       65.3062915263      -12.3572521796
H                26.6268693436       63.1345027247      -14.8695402651
H                25.4474552165       64.3233546921      -14.4942075893
N                31.3657199974       66.6922871175      -13.9660440170
C                32.1317099788       66.1657030992      -15.0523033453
C                33.5932730511       66.5975291865      -14.9211225779
O                34.4922979233       65.7779033559      -15.0423600646
C                31.5813631775       66.5989597070      -16.4025299250
C                30.8276805722       65.4778035992      -17.1007398519
C                29.3947605647       65.2849580240      -16.6116211178
C                29.0464852115       63.8138483530      -16.4113234099
N                29.3694742022       62.8983287801      -17.5440997656
H                30.6059500850       67.3324599663      -14.1648246581
H                32.1526138602       65.0693620663      -14.9663043680
H                30.9440693434       67.4713191987      -16.2655733912
H                32.4193772970       66.8960116812      -17.0371013627
H                30.8131133576       65.6818072727      -18.1716789715
H                31.4035869913       64.5627233591      -16.9485329456
H                29.2351448696       65.7938738637      -15.6602977427
H                28.6958945240       65.7263085626      -17.3234435010
H                29.6006379300       63.4435574577      -15.5452184429
H                27.9707035322       63.7658338830      -16.2541491234
H                28.9530579067       61.9773187718      -17.3805365656
H                29.0197876038       63.2140394822      -18.5361785808
H                30.3819719928       62.7837734609      -17.6449347773
N                12.7583338547       82.7454867146       -4.2679832788
C                12.1606369666       81.7640364220       -3.4082838274
C                12.4976573297       82.0610832099       -1.9424859863
O                11.6246771507       82.0145426874       -1.0798144053
C                12.5525488437       80.3722554892       -3.8710511175
C                12.0094187266       79.1980964066       -3.0390668514
C                11.7081758178       78.0265007029       -3.9750369902
C                12.9680774891       78.7535652340       -1.9190735672
H                13.2189440707       82.4871301374       -5.1274567183
H                11.0672856276       81.8709997342       -3.4580578310
H                12.1700543963       80.2805243885       -4.8890506020
H                13.6422999352       80.2931211871       -3.9262658014
H                11.0732624774       79.5088918459       -2.5590347695
H                11.4123118666       77.1679236941       -3.3818015905
H                10.9081829748       78.2782399886       -4.6630746713
H                12.5984628410       77.7731493191       -4.5475575188
H                12.5148748410       77.9400059498       -1.3578058191
H                13.9161278025       78.4211703208       -2.3331919406
H                13.1530303783       79.5663968809       -1.2203648540
H                 6.0301403986       75.5267788893       -8.2029723623
H                33.8172218272       67.5542548411      -14.7353190054
H                12.1292850581       83.3279766943       -4.5418500987
H                13.4344579208       82.2950112112       -1.6823276830
