 538 
 
N                14.3035849218       34.7959401822       79.7989062453
C                15.1013518695       33.9290431500       80.6493260982
C                16.4998852745       33.8021397351       80.0231576956
O                16.6520120423       33.3561063370       78.8906168566
C                14.4837642374       32.5210105309       80.7785475379
C                15.3968904996       31.6468984223       81.6032838123
C                13.0959670270       32.5704395703       81.4123364704
H                14.1888473093       34.5068728631       78.8299571253
H                15.1811796864       34.4178148560       81.6247872397
H                14.4110595278       32.1142885209       79.7670090643
H                14.9620217614       30.6624974837       81.7363132810
H                16.3720067587       31.5452174422       81.1406605507
H                15.5403359981       32.0900812789       82.5959787529
H                12.6646042232       31.5799188604       81.4263402779
H                13.1524674597       32.9510739199       82.4279876357
H                12.4430829201       33.2276435745       80.8360900565
N                25.1622443904       24.2088453942       84.3235091510
C                23.9205926523       24.1077549658       83.5889496016
C                24.1077932682       24.3832332121       82.0944275438
O                24.8847501302       25.2377512472       81.6586263322
C                22.9245448191       25.1423364588       84.1204434353
C                22.4499264200       24.8598867445       85.5507757914
C                22.0801902716       26.1665176680       86.2412013765
C                21.2647957686       23.9027258061       85.5399963048
H                25.3359311664       25.0102772050       84.9182968775
H                23.5506128476       23.0857959090       83.7236078632
H                23.4301667957       26.1071247511       84.0779332340
H                22.0677989728       25.1920244667       83.4452129348
H                23.2749950326       24.3997725657       86.1053433504
H                21.7059640566       25.9803147853       87.2423857590
H                22.9480646811       26.8154024797       86.3273041199
H                21.3151865670       26.6931088208       85.6737753319
H                20.9455671923       23.6779984798       86.5559204359
H                20.4238573859       24.3447674229       85.0053418840
H                21.5248073846       22.9638930033       85.0599271688
N                23.3102130396       23.6966237809       81.2858128137
C                23.2083522949       24.0806009459       79.8703001722
C                22.4118617344       25.3942718081       79.7486918968
O                21.8680963132       25.9233547523       80.6791912599
C                22.4459653502       22.9228793587       79.1999620168
C                21.5490142133       22.4298385378       80.3422821189
C                22.3885990705       22.6298543818       81.6262222542
H                24.2217320836       24.2179246055       79.4897044966
H                21.8760085678       23.2491121035       78.3453841194
H                23.1458876549       22.1391595873       78.9082791099
H                20.6565399852       23.0512555386       80.4036179507
H                21.2571043244       21.3913481674       80.2187102019
H                21.7454409092       22.9069813790       82.4579154208
H                22.9530885261       21.7294288662       81.8775221262
N                19.2557120110       27.5266401195       77.4347728187
C                17.9350735017       27.1992710106       76.9333979419
C                17.8296174532       27.4151812113       75.4343652779
O                18.4946542134       28.2306158023       74.8105721917
C                16.8550826645       28.0353534428       77.6306012539
C                16.5173462786       27.5460649479       79.0465117341
C                15.8882412341       28.6946303583       79.8220385087
C                15.5608914082       26.3620303885       78.9995235578
H                19.5191388811       28.4906808430       77.4620043638
H                17.7917790490       26.1331120785       77.1441199716
H                17.1961481848       29.0743985908       77.6504211337
H                15.9494501873       28.0222537803       77.0231458040
H                17.4458953190       27.2362516638       79.5339810924
H                15.6741996546       28.3861243243       80.8439862459
H                16.5629243903       29.5450223680       79.8660268886
H                14.9671252344       29.0203010359       79.3487046693
H                15.3900096582       25.9633153697       79.9952491691
H                14.6037160652       26.6766358652       78.5856265874
H                15.9519551838       25.5555888570       78.3814167332
N                 9.4404958596       34.0087591780       76.3695326670
C                 8.2952956366       33.1933454602       76.7058212775
C                 7.0762996545       34.0755710426       77.0638330665
O                 7.2162613846       35.0819423904       77.7660977859
C                 8.5324824971       32.3963525405       78.0203418829
C                 9.7182937479       31.4829267834       77.9846498099
C                11.0124501927       32.0016807777       77.9968240964
C                 9.5423367745       30.1081220725       77.9595161998
C                12.1082278598       31.1590322435       77.9682186429
C                10.6397827749       29.2671445717       77.9354740147
C                11.9237091850       29.7871305445       77.9369806521
H                 9.6511540187       34.7520369502       77.0319141759
H                 8.0685376319       32.5281773126       75.8720913344
H                 8.6674536946       33.1305534023       78.8182385202
H                 7.6254352420       31.8293074909       78.2298295404
H                11.1727745121       33.0683056628       78.0565622700
H                 8.5477043996       29.6947176206       77.9586853778
H                13.1068661514       31.5691657652       77.9578650173
H                10.4975220271       28.1957363248       77.9202994333
H                12.7872093584       29.1357445694       77.9066126215
N                 0.4112370478       32.5111318331       86.9688871918
C                 1.2615472666       31.3338963492       86.9968652896
C                 2.2494817041       31.5314671779       88.1493947567
O                 2.7882287044       32.6330611008       88.3176667259
C                 2.0342719819       31.1771307403       85.6767549875
C                 2.4710246799       29.7390697139       85.3929785932
C                 1.2600148459       28.8291358333       85.1721523218
C                 3.3760433785       29.7224689324       84.1612723566
H                 0.8808429438       33.4039715340       86.9806494518
H                 0.6096696813       30.4807201567       87.1752174989
H                 1.3878613586       31.5347075372       84.8728809706
H                 2.9064410062       31.8315369880       85.7101270213
H                 3.0397027323       29.3749182389       86.2539122309
H                 1.5701064803       27.8908914232       84.7256583567
H                 0.7618385132       28.6158303493       86.1131994119
H                 0.5381367741       29.3101566671       84.5147486208
H                 3.7276126833       28.7095614918       83.9722129361
H                 2.8250723433       30.0618860294       83.2950700148
H                 4.2389355073       30.3638858020       84.3125100197
N                 5.7518967041       31.1653567055       90.1964501514
C                 7.1671502636       31.0463991716       89.9044762297
C                 7.6398919699       29.5911871454       90.0099172586
O                 8.5502441538       29.1843210489       89.3020496251
C                 7.9841245761       31.8712229085       90.8806631853
C                 8.1464532020       33.3027632991       90.4208995718
S                 9.2783936439       33.4637173552       89.0565298432
C                10.7499613177       32.6277613841       89.6848587638
H                 5.4425567872       31.8549241466       90.8745241347
H                 7.3767616898       31.3769242838       88.8825942569
H                 7.4627678486       31.8801483617       91.8522741114
H                 8.9586500015       31.4211944201       91.0477054002
H                 7.1974431028       33.7312367732       90.0937472516
H                 8.5241683183       33.9167945014       91.2501336992
H                11.5761533587       32.9676772606       89.0641707585
H                10.9202656565       32.9295714518       90.7131812346
H                10.6418733864       31.5531156126       89.6005002144
N                 7.0463718789       28.8137850439       90.9167089731
C                 7.4556891409       27.4190798851       91.0139482213
C                 7.0643786576       26.7158821198       89.7236197770
O                 7.8361293494       25.9720230861       89.1296480568
C                 6.8304399880       26.6959367116       92.2429144740
O                 7.3650952843       27.1919041896       93.4492592065
C                 7.1067778733       25.1968092564       92.1806549665
H                 6.3814390277       29.1852464255       91.5829055018
H                 8.5487417021       27.3735814671       91.0990295092
H                 5.7471333220       26.8750289750       92.2089868743
H                 6.9811514688       28.0678433714       93.6320767008
H                 6.7263561209       24.7341256250       93.0860154041
H                 6.6300673378       24.7550353854       91.3139725034
H                 8.1776398138       25.0229537761       92.1248221202
N                 5.8054376607       26.9237932112       89.3341878446
C                 5.3088060223       26.3326220087       88.1049139617
C                 6.2720476129       26.6990191538       86.9727938972
O                 6.6911538745       25.8614578502       86.1720243002
C                 3.9009145881       26.8362936754       87.7916123872
C                 2.8242550445       26.1277105782       88.6179737970
C                 1.4726690262       26.8421375961       88.5679466853
O                 1.3211595379       28.0321248383       88.2945861067
N                 0.4227307873       26.0722939964       88.8801439220
H                 5.2251368469       27.6200988843       89.7912076901
H                 5.3219679552       25.2405597326       88.1967428753
H                 3.8671176284       27.9109456426       87.9823188254
H                 3.6977156838       26.6837188468       86.7301732891
H                 2.7014777686       25.1041753260       88.2760949368
H                 3.1374486667       26.1106308978       89.6648526910
H                 0.5200583137       25.0920359466       89.0897991831
H                -0.4925162635       26.4910009027       88.9034239805
N                 6.6180123080       27.9901822037       86.9211486478
C                 7.4599947504       28.4566849837       85.8491699082
C                 8.8171606641       27.7582561785       85.8601860473
O                 9.2922846116       27.2803968138       84.8202326827
C                 7.6324915258       29.9672081729       85.9343875157
C                 8.2702958473       30.5387431049       84.6941227133
C                 7.8513956216       30.1675490799       83.4069869620
C                 9.2831817581       31.4783077634       84.8156292893
C                 8.4548985588       30.7055039937       82.2925035424
C                 9.8642921376       32.0461170866       83.6781253639
C                 9.4685245788       31.6491162986       82.4148778780
H                 6.1936356949       28.6642706810       87.5433422676
H                 6.9935902753       28.1728828360       84.8940387973
H                 6.6327210798       30.3932068361       86.0649858516
H                 8.2308924048       30.2187942386       86.8053986383
H                 7.0418106558       29.4700847099       83.2859579479
H                 9.6279558433       31.7796672528       85.7870171177
H                 8.1296511883       30.4088297169       81.3072001678
H                10.6418894459       32.7814079874       83.8101899466
H                 9.9160344345       32.0858767562       81.5391502281
N                 9.4176643009       27.7300173378       87.0534961649
C                10.6960071668       27.0650176755       87.2645977057
C                10.5921956382       25.6468071552       86.6824922852
O                11.4356296481       25.2055436746       85.9029439409
C                11.0627035185       27.0859275473       88.7225118832
C                12.5806463577       27.0309855748       88.9850523739
C                12.8466010868       27.1641272599       90.4932914804
C                13.2353274724       25.7461196148       88.4674488642
H                 9.0016954175       28.1863072217       87.8509495425
H                11.4621840436       27.5867900931       86.6649754727
H                10.6791206540       28.0074571527       89.1577767455
H                10.5726702509       26.2525369034       89.2376313608
H                13.0381202477       27.8821731348       88.4782290397
H                13.9160308990       27.1607529590       90.6898438195
H                12.4237525985       28.0894010026       90.8737989162
H                12.3918289497       26.3355282786       91.0308613650
H                14.2991498393       25.7809183783       88.6824832221
H                12.7867900564       24.8819406476       88.9564445201
H                13.1021454438       25.6495108094       87.3977784295
N                 9.5316912270       24.9368833639       87.0675644503
C                 9.3085532485       23.5997573719       86.5642047014
C                 9.3587837792       23.5417166214       85.0376570448
O                10.0157198319       22.6880063649       84.4568605347
C                 7.9493134045       23.0646726081       87.0206515882
O                 7.7634469353       21.8098672023       86.4041524325
H                 8.8693651943       25.3216746089       87.7315538569
H                10.0985687234       22.9219943098       86.9203798749
H                 7.9479476774       22.9756782546       88.1151093444
H                 7.1700623137       23.7719502920       86.7135647380
H                 6.9354340727       21.4228384270       86.7173285640
N                 8.6170846486       24.4494431908       84.4075372859
C                 8.5035334400       24.4107752444       82.9592495305
C                 9.8808843951       24.6571490390       82.3158775457
O                10.2192323992       24.1051387009       81.2853239390
C                 7.4651349374       25.3926452949       82.3903315633
C                 6.1212303081       25.2732234477       83.1147768836
C                 7.2905707006       25.1018038590       80.9071669771
C                 5.1010417048       26.2983264689       82.6288280506
H                 8.0951964986       25.1420041251       84.9255640561
H                 8.2141318446       23.3872069440       82.6741213587
H                 7.8568058585       26.4073693168       82.5374185770
H                 5.7231305768       24.2665492268       82.9647396557
H                 6.2559616807       25.4130642871       84.1850677860
H                 6.7812213549       25.9259362087       80.4127513594
H                 8.2534863629       24.9596074982       80.4249549981
H                 6.7047108527       24.1978355638       80.7682416158
H                 4.2108714254       26.2650937346       83.2510833259
H                 5.5183416423       27.3025584025       82.6769371283
H                 4.8018203178       26.1014602543       81.6037159938
N                10.6689927027       25.5269173891       82.9515993485
C                12.0059481680       25.7814743605       82.4660819382
C                12.8896289728       24.5444265050       82.6596068261
O                13.5422340410       24.0865768788       81.7318574370
C                12.5366499660       27.0459143445       83.1534387448
C                11.9321191855       28.2666159257       82.4485103728
C                14.0567805772       27.1119773827       83.1471861570
C                11.9034030864       29.4693655398       83.3664197105
H                10.3338481577       26.0275111405       83.7626061112
H                11.9643284082       25.9323165155       81.3797207047
H                12.1876422300       27.0170522223       84.1895075008
H                12.5080785514       28.4867218855       81.5524189725
H                10.9050127109       28.0446493523       82.1531835958
H                14.3976037239       28.0713163247       83.5187376492
H                14.4804371208       26.3329352398       83.7676643199
H                14.4297776879       26.9815268398       82.1324009661
H                11.5180972934       30.3386433011       82.8489573895
H                11.2542669126       29.2791219584       84.2195600778
H                12.8997841885       29.7103075814       83.7373493745
N                12.9121233202       24.0200734844       83.8874606559
C                13.6590143922       22.8138656708       84.1740564932
C                13.3295555924       21.6941018739       83.1759638425
O                14.2044587079       20.9809982744       82.7117677215
C                13.3612681395       22.3410115120       85.5870789602
C                14.3065127236       21.2094931188       85.9945420180
C                14.2310748690       20.8403710072       87.4794486116
N                14.6832441174       21.9574672298       88.2826403673
C                14.9100845629       21.9116825900       89.5753746766
N                14.7467677909       20.7951913193       90.2715657728
N                15.2539697966       23.0494531319       90.2112747495
H                12.2865993450       24.3829615376       84.5992986873
H                14.7302455044       23.0167333770       84.0537414130
H                13.4579610502       23.2017354510       86.2520481081
H                12.3222803053       22.0014602567       85.6356358249
H                14.0792479826       20.3178049962       85.4112043824
H                15.3365361379       21.4724241802       85.7617599983
H                13.2007103548       20.5847856166       87.7463014364
H                14.8852166227       19.9868561680       87.6269240589
H                14.8460157821       22.8249547688       87.7992284897
H                14.6706480617       19.9027876122       89.8015949676
H                15.0225156073       20.7427446482       91.2347592692
H                15.1833998143       23.9310454105       89.7377195910
H                15.2133201016       23.0708941971       91.2239502955
N                12.0315821901       21.5714105805       82.8698528920
C                11.5163994961       20.5862947566       81.9432275278
C                12.2904591758       20.5665078213       80.6123078686
O                12.5317273347       19.5310444996       80.0110227175
C                10.0585846094       20.9517455059       81.6280489456
O                 9.6691561118       20.3214890783       80.4307850656
H                11.3390278934       22.0974411131       83.3956789309
H                11.5813641753       19.5724109572       82.3555073702
H                 9.4183098946       20.6557631919       82.4647057785
H                10.0133472084       22.0419404652       81.4974807066
H                 8.7509181621       20.5453651014       80.2368489862
N                12.5855154739       21.7853340528       80.1441619795
C                13.2490575510       21.9860058066       78.8845377213
C                14.7515403538       21.6769340528       78.9263186572
O                15.4364684103       21.7194343024       77.9051416773
C                13.0613385365       23.4183035036       78.3911181969
C                11.6126933087       23.7276778456       78.0280792855
C                11.4869241307       25.1964502767       77.5984952621
N                10.6574081030       25.3855507129       76.4106285211
C                11.0600921584       25.2499904912       75.1447125865
N                12.3365487276       25.0862046924       74.7986461955
N                10.1569493805       25.4222122573       74.1819221751
H                12.4809046846       22.5783323497       80.7656526360
H                12.8274752893       21.2681344119       78.1684198492
H                13.4022252178       24.0834619671       79.1897340749
H                13.7250159225       23.5492057207       77.5329285462
H                11.3113970757       23.0699691669       77.2116681900
H                10.9791024789       23.5235312255       78.8856011336
H                11.0366381755       25.7808010727       78.3988704151
H                12.4767261814       25.6120581936       77.3957165655
H                 9.6678916536       25.4113332392       76.5818420465
H                13.0728716865       24.8781299793       75.4628056294
H                12.5629158722       24.8248748014       73.8563283847
H                 9.1744566559       25.5019140579       74.3987630367
H                10.3939102112       25.2082547582       73.2220139275
N                15.2720435597       21.4184897842       80.1305676142
C                16.6433185987       21.0038693318       80.3251323587
C                16.7161410060       19.4828022434       80.5674430226
O                15.7439394199       18.7717828306       80.7548375913
C                17.2740175671       21.7904479832       81.4701277230
C                17.2377293762       23.2913679058       81.2073832013
S                18.2251987318       24.1840409198       82.4863489905
C                17.1297024075       25.5555603253       82.8895738356
H                14.6668304839       21.2435022428       80.9279750522
H                17.1623175321       21.2139328579       79.3809960663
H                16.7167019155       21.5690443859       82.3865683818
H                18.3070780306       21.4714097685       81.6172239854
H                17.6645068004       23.5233578214       80.2336486580
H                16.2177912471       23.6646262055       81.2594065582
H                17.5097445374       26.0125932686       83.7937257296
H                17.1470125336       26.2802778989       82.0781131387
H                16.1323297706       25.1625814317       83.0389623850
N                17.9650100119       18.9678018850       80.5003673615
C                18.1718386198       17.5916623964       80.0782419581
C                18.4906652182       16.6790126184       81.2674609677
O                19.5847100287       16.6691103492       81.8015859935
C                19.2563933910       17.5418359481       78.9769439278
C                20.6367303958       17.9905501533       79.4553753888
C                19.3329196138       16.1330212573       78.3944984114
H                18.7355471402       19.5979124062       80.3328804802
H                17.2200720545       17.2592496301       79.6431241958
H                18.9168931933       18.2270156207       78.1919049870
H                21.3032813582       18.0758924378       78.6027204509
H                20.6032359561       18.9529686318       79.9581720472
H                21.0458360996       17.2629660877       80.1499174479
H                20.0454518180       16.1109684090       77.5735789468
H                19.6653806520       15.4311584606       79.1543073985
H                18.3665795845       15.8114017675       78.0169575672
N                17.4715904425       15.9036146734       81.6775584939
C                17.5699840726       14.8816548355       82.7205951666
C                17.9067880053       15.4822862130       84.1126577572
O                18.4875744417       14.8281677494       84.9645000822
C                18.5950387147       13.7684135764       82.4060168306
C                18.1072511934       12.6013692267       81.5359719003
C                18.0288618124       12.9874939728       80.0583639894
C                19.0615259795       11.4187874450       81.7131592642
H                16.5752257532       16.0098258792       81.2253549182
H                16.5794470873       14.4283092596       82.8194430562
H                19.4639788822       14.2283668568       81.9348524076
H                18.8993388270       13.3698900006       83.3744148785
H                17.1120328680       12.2967376292       81.8765757218
H                17.6468624089       12.1600846393       79.4700597963
H                17.3704198700       13.8421408470       79.9140159427
H                19.0169235870       13.2440536168       79.6867782472
H                18.7408733043       10.5804063902       81.1007091741
H                20.0682718692       11.6959745798       81.4114394032
H                19.0846079455       11.0942864656       82.7500903075
N                17.4882067347       16.7413382178       84.3368088028
C                17.9442364123       17.4887222155       85.4930275474
C                16.8307234938       17.7512213461       86.5247038399
O                16.3689599917       18.8611749499       86.6933144985
C                18.5353158766       18.8398626530       85.0597970676
C                19.6608372199       18.7458165106       84.0382571146
C                21.0382306457       18.3668471446       84.6027620274
N                21.0705952734       17.1544506555       85.4033048574
C                21.2760346729       15.9002222472       85.0192368691
N                21.3639591601       15.5734747005       83.7207081094
N                21.4843194734       14.9847119764       85.9535013914
H                16.9889981251       17.2507308000       83.6223232854
H                18.6873763620       16.8584917561       85.9910797919
H                17.7173984974       19.4276672340       84.6438746073
H                18.8802058893       19.3498367686       85.9613280104
H                19.3891558713       18.0358060457       83.2638997633
H                19.7808593733       19.7217294615       83.5720717930
H                21.7369640923       18.2527904882       83.7722487773
H                21.3939773576       19.1689449579       85.2474171563
H                21.0307857944       17.2778783540       86.4011023642
H                20.8981964074       16.1447825333       83.0240838320
H                21.4563094553       14.5979666272       83.4999284575
H                21.4288956774       15.2594228779       86.9361873252
H                21.5224688449       14.0053482599       85.7212654357
N                16.4033291622       16.6840297569       87.2316911677
C                15.4337472237       16.8626135025       88.2871241864
C                15.9778383481       16.7778061980       89.7284230450
O                15.3796687109       17.3239210862       90.6429951132
C                14.2541453712       15.8964453798       88.1461309603
H                16.8514044742       15.7890553218       87.1049935405
H                15.0612714252       17.8859409272       88.1721326249
H                13.5460270061       16.0884360961       88.9510686289
H                13.7607006393       16.0562867793       87.1950268205
H                14.5884202831       14.8677688140       88.2174211812
N                18.7737724573       17.9260032592       90.9087324239
C                19.7385744910       18.9960762911       91.0795806525
C                18.9657151282       20.2894759114       90.7630371439
O                18.2967238216       20.4134252666       89.7421345552
C                20.9659829641       18.8444849485       90.1582908931
C                20.5878655609       18.5967631702       88.6915978802
C                20.2927969435       17.0950486906       88.3973241582
O                21.2918717558       16.3398925798       88.2984912808
O                19.1124142357       16.7440041952       88.2094452123
H                18.1901331190       18.0140590705       90.0848199881
H                20.0709796715       18.9717113799       92.1194014096
H                21.5623104797       19.7533649823       90.2415762058
H                21.5701858086       18.0042596814       90.5099297259
H                19.7140071398       19.1900354354       88.4167582516
H                21.4334931312       18.8799981804       88.0626988368
N                19.0015299664       21.2157843608       91.7362334892
C                18.3117863132       22.4726383381       91.5833532982
C                19.2223577202       23.5677879192       91.0279607779
O                20.4394193503       23.5466171690       91.0780644825
C                17.7336207108       22.9483046876       92.9127256872
H                19.6869167525       21.1366675444       92.4717476769
H                17.5268307466       22.2787230823       90.8433238258
H                17.1619156177       23.8588887521       92.7896168219
H                17.1020563972       22.1687505356       93.3412257576
H                18.5417624824       23.1459710844       93.6150332038
N                18.5062157279       24.5717230655       90.4961225466
C                19.0619426624       25.8569884266       90.2115100808
C                18.0092331159       26.8856729440       90.6334276357
O                16.8413532709       26.5517956620       90.7308820721
C                19.3908497482       25.9715175567       88.7106224501
C                18.1630388618       25.8615580112       87.8505297239
C                17.6838906506       24.6220866671       87.4485683072
C                17.4828125563       27.0061992131       87.4527910379
C                16.5556784089       24.5353576927       86.6526615006
C                16.3471931159       26.9162841043       86.6677079366
C                15.8819822602       25.6796640821       86.2645248454
H                17.4951235700       24.5834800284       90.5662031742
H                19.9824452026       26.0058761739       90.7869325464
H                19.8884035989       26.9291969683       88.5336241556
H                20.0863831283       25.1634397124       88.4797206995
H                18.2128121099       23.7265668625       87.7432699158
H                17.8480188650       27.9655188718       87.7898257071
H                16.2307211725       23.5674152499       86.3080209340
H                15.8349994910       27.8179745781       86.3666305147
H                14.9928449853       25.6064406948       85.6607434472
N                16.1001885314       30.6109242898       89.9962367080
C                15.6125507468       31.5348804372       88.9760795829
C                15.4821361131       32.8814923870       89.7000971555
O                14.7479687590       32.9953396171       90.6518879918
C                14.2902172806       30.9907322227       88.4545621936
C                13.7165997755       31.7350836888       87.2487332023
C                14.7054873106       31.8222911536       86.0746172781
C                12.4564126427       31.0123945979       86.7693846476
H                15.5039087739       30.5152421441       90.8041199244
H                16.3750498680       31.5913190115       88.1975711957
H                14.4623118939       29.9497964918       88.1730819603
H                13.5679507718       31.0216015372       89.2696799109
H                13.4572805072       32.7569700378       87.5449981521
H                14.2055475673       32.2534242356       85.2117208471
H                15.5646223738       32.4372073945       86.3137744031
H                15.0454962783       30.8244154008       85.8050950927
H                11.9808176287       31.5786789628       85.9749747376
H                12.7180455080       30.0311085374       86.3827351232
H                11.7490513380       30.8884612125       87.5822048624
N                 8.4808105694       32.0057155619       95.7012088924
C                 8.2090716555       30.9214769343       94.7831777042
C                 6.7121294641       30.5724102574       94.7283920913
O                 6.2946511042       29.7429682803       93.9351251767
C                 9.1251077854       29.7133841745       95.0273174698
C                10.5877603125       30.0523285535       94.7556498067
S                10.8608544281       30.5020259451       92.9854821438
C                12.6720233579       30.6667411360       92.9316965854
H                 8.9345956484       31.7948278155       96.5815954783
H                 8.4343147241       31.3008516527       93.7725224375
H                 9.0238758946       29.3914183923       96.0646769339
H                 8.8135838937       28.9027849528       94.3742011245
H                10.9237533215       30.9096756822       95.3394342073
H                11.2194515076       29.1924814074       94.9587679012
H                12.9119096635       31.1636816402       92.0015463747
H                12.9808594933       31.2647874174       93.7753748311
H                13.1061254756       29.6705624857       92.9629394315
N                19.0763295084       32.4308281195       85.3790342020
C                19.1229480071       31.2133841120       86.1439902348
C                20.5598713869       30.7671406202       86.3486978135
O                21.4017816316       30.8738223778       85.4682007704
C                18.2296073335       30.1269956037       85.5517991143
C                18.7020449810       29.6188409743       84.2386783310
C                18.4373775263       30.3668286710       83.1024407393
C                19.3829487931       28.4115800943       84.1188383264
C                18.8174164229       29.9142001535       81.8587730285
C                19.7768553230       27.9513809688       82.8829876498
C                19.4696341538       28.6932608303       81.7447540110
O                19.7897491377       28.1905602660       80.5175103604
H                19.6251322598       32.5336686999       84.5381221311
H                18.7105119703       31.4586736990       87.1363416746
H                18.1772488490       29.3086923861       86.2782586887
H                17.2329964057       30.5575953755       85.4512034624
H                17.9113012843       31.3065472889       83.1884883082
H                19.5821762978       27.8283156807       85.0037178864
H                18.5817147915       30.4937559504       80.9770976864
H                20.2953081223       27.0138615805       82.7543816772
H                19.3428059107       28.7305804732       79.8451517846
N                 3.4968801844       28.9384757648       76.1399981657
C                 3.6810561897       28.3201326439       77.4408760228
C                 2.7528848896       27.1161868227       77.6374501231
O                 2.1182859218       26.6206567434       76.7154110114
C                 3.3850913308       29.4545495149       78.4083407303
C                 4.0591118587       29.3727826296       79.7810249416
C                 1.8636280281       29.6759001489       78.4512737237
C                 5.5590376252       29.1224240251       79.6603847527
H                 2.8132110465       29.6774506325       76.1104391009
H                 4.7132226281       27.9559902871       77.4780091586
H                 3.8423774664       30.3345609195       77.9508216974
H                 3.9144540164       30.3485491806       80.2544467142
H                 3.5997532259       28.6487815392       80.4575376128
H                 1.4480220772       29.3166473731       79.3887505166
H                 1.6680790745       30.7423441256       78.3499468464
H                 1.3575525788       29.1614998767       77.6446949643
H                 6.0324431775       29.2841268821       80.6322516803
H                 5.7775650145       28.1057579823       79.3560814027
H                 5.9964285978       29.8168931519       78.9531147771
N                 2.7009080888       26.6203696909       78.8817599320
C                 1.5661893881       25.8285863517       79.3056616518
C                 0.7629436992       26.6281163817       80.3321210479
O                 1.1466519349       27.6994722830       80.7619061181
H                 3.1216943233       27.1637257644       79.6209390516
H                 0.9596028420       25.6018127013       78.4274744212
H                 1.9063729943       24.8891114164       79.7590749042
H                13.4708476068       34.8617639831       80.1338925008
H                17.3070894822       34.0858410554       80.5407820071
H                25.2405982332       23.5053592151       84.8793579354
H                22.3288884305       25.8484011908       78.8616282381
H                19.3350713145       27.2375443578       78.2833750469
H                17.1856083279       26.8725256153       74.8951277137
H                10.1749776094       33.4906940197       76.3232179731
H                 6.1669035311       33.8326658884       76.7262004604
H                -0.0865790926       32.5044107012       86.2191312870
H                 2.4585210866       30.7713361920       88.7646210735
H                 5.3064868438       31.3763844378       89.4434047659
H                16.8217749387       16.2750417538       89.9155030941
H                19.2062379067       17.1397156295       90.8399908896
H                18.2809706283       27.8281623746       90.8280359539
H                16.1860682245       29.7886853948       89.6405010226
H                16.0070787189       33.6718744567       89.3842942985
H                 9.0206038815       32.6069099894       95.3047389181
H                 6.0699661564       31.0261730581       95.3462315582
H                18.2334683787       32.5782222087       85.0999999773
H                20.8411098449       30.3726360333       87.2234955390
H                 4.2749393216       29.2979023116       75.8653410405
H                -0.1081512167       26.2732888767       80.6716664634
