 255 
 
N                54.8120527271       56.1752749617      190.1062364189
C                53.6517118745       55.3063457908      189.9354716351
C                53.0205609864       55.4540896631      188.5077114982
O                52.5699830720       54.4726576554      187.8665614945
C                52.5872622828       55.5073764747      190.9984655527
H                54.6932827986       56.7983808554      190.7665231633
H                53.9857440294       54.3648822421      190.0126545010
H                51.8542444548       54.8695376203      190.8672950517
H                52.9960865756       55.3829412510      191.8882412081
H                52.2435572592       56.4361687398      190.9225975779
N                55.5024374241       51.8422408505      188.7175525305
C                55.9935797005       51.3454921690      190.0247962992
C                55.4206803683       52.1800603437      191.1786846465
O                55.7026590701       53.3965808924      191.2563870004
C                57.4841257707       51.3151570511      190.0526287620
C                58.0340528389       50.0798866504      189.3697166296
C                59.3036982447       50.3771332228      188.5865449196
C                59.6683347191       49.2262747739      187.7345555053
N                59.7468908739       47.9496782398      188.5398124595
H                55.8843207422       52.6273353358      188.5053781822
H                55.6452258386       50.4148636024      190.1339274415
H                57.8431374241       52.1193783150      189.5814903094
H                57.8046283741       51.3273765437      190.9894661565
H                58.2388511055       49.3923804957      190.0436092321
H                57.3656912168       49.7379917391      188.7281624373
H                59.1806451674       51.1905634058      188.0345490303
H                60.0560837724       50.5468661358      189.2306266054
H                58.9722885703       49.1139940473      187.0216873057
H                60.5434380273       49.3884719212      187.2861218236
H                59.9577126003       47.2417486779      187.9760564362
H                60.4074389493       48.0247336658      189.1615697262
H                58.9543675325       47.7817084361      188.9359885035
N                54.6114127602       51.5341531722      192.0177427635
C                53.7612212209       52.1555884479      192.9679460294
C                54.0446184209       51.6659541952      194.3655143592
O                53.4228807927       52.1406340774      195.3257803082
C                52.2663903626       51.9599287976      192.6264094942
O                51.8896294692       50.6061136805      192.7920115092
H                54.5283245073       50.6236859790      192.0157630478
H                53.9151256865       53.1456202540      192.9477800273
H                51.7228144605       52.5203501724      193.2367161989
H                52.1172252998       52.2467943146      191.6931311020
H                51.0809887464       50.4969578449      192.4480200403
N                54.9497711005       50.7125433323      194.5147124900
C                55.1972145622       50.1325412727      195.8190055094
C                55.7841620132       51.1133045945      196.8198464431
O                55.3857624190       51.1558759947      197.9673584680
H                55.4595368514       50.3627876374      193.8560873659
H                54.3407191233       49.7843251322      196.1915955200
H                55.8218701621       49.3590436039      195.7353394869
N                56.7472137795       51.8987440560      196.4167923215
C                57.3300524884       52.9130340443      197.2439478575
C                56.3145423655       54.0084261149      197.5964212457
O                56.1692023216       54.3754011749      198.7113893113
C                58.6252611817       53.4497906869      196.5840093143
C                59.6966109820       52.3927445651      196.1569488737
C                59.4704417436       51.7939460640      194.7858967059
O                58.7157567872       52.3244776167      193.9074523513
O                60.0014002523       50.6912526753      194.5979742741
H                57.1139696584       51.8596991328      195.5611036444
H                57.6046904767       52.5099646440      198.1062640973
H                58.3597815181       53.9618385553      195.7733779550
H                59.0579067541       54.0727551006      197.2258309330
H                60.5650906193       52.8075678116      196.1622611057
H                59.6468273895       51.6496146744      196.8124387542
N                55.5627540139       54.4973660916      196.6849539148
C                54.4992249872       55.3844875923      196.9528449194
C                53.5558541559       54.8289885525      197.9996992498
O                53.0644114612       55.5893744141      198.8320559329
C                53.6936356274       55.7447067273      195.6907127610
C                52.5227190409       56.7036015029      195.7883896671
C                52.9084740814       58.0952916197      196.0554670247
C                51.7478997788       56.6021056285      194.4912345072
H                55.6393270640       54.2647893552      195.7625391124
H                54.8971620677       56.2204852865      197.3057694157
H                54.3326144256       56.1498118077      195.0493114392
H                53.3491920925       54.8957794304      195.3221713293
H                51.9632764089       56.4338583443      196.5752620848
H                52.1099157368       58.6723128997      196.0988896682
H                53.4099782803       58.1560981290      196.9062133543
H                53.4976457214       58.4145104535      195.3138015792
H                50.9638365345       57.2404344569      194.5338025638
H                52.3127978050       56.8400245073      193.7409151802
H                51.3824508598       55.6879685012      194.3852899770
N                53.2647891623       53.5335992558      198.0063626286
C                52.3639522917       52.9523363865      198.9921679705
C                52.9537916495       53.0272511950      200.4244095093
O                52.2498353992       53.4074794600      201.3892072591
C                52.0009795597       51.5626913653      198.6294193117
C                50.9159508523       51.4190288538      197.5707839263
C                50.9491542631       50.0275170172      196.8477116873
C                49.5706906333       49.4720581219      196.5821245844
N                49.5306908033       48.4319875786      195.5585327963
H                53.5960218755       52.9360332276      197.4143230313
H                51.5296608655       53.5023957612      199.0168382569
H                52.8197803931       51.0960908036      198.2856662953
H                51.6939478333       51.0706283570      199.4445243736
H                50.0289079994       51.5228111961      197.9922685368
H                51.0435424282       52.1164102863      196.8839138200
H                51.4322564758       50.1063370828      195.9992355459
H                51.4318678343       49.3779356480      197.4419084670
H                49.1947149133       49.0950372675      197.4219219900
H                48.9811853262       50.2242744255      196.2871455137
H                48.6712222538       48.1465576576      195.4060286136
H                49.8660651104       48.7592773494      194.7594937878
H                50.0401165699       47.7141641877      195.8080463028
N                54.2366086355       52.6867818338      200.5571793991
C                55.0415969208       52.8592591621      201.7348561655
C                55.0107186001       54.3146145913      202.2269609002
O                54.7711543051       54.6106992136      203.4420030083
C                56.4949387134       52.4157916480      201.5534284791
O                56.6415035453       51.1487598457      200.9194292027
C                57.1775803560       52.3063067198      202.8448225764
H                54.7328897200       52.3185586088      199.8608527425
H                54.6092184295       52.2778672189      202.4368893509
H                56.9022999351       53.1204753075      200.9794069218
H                57.4686536495       50.9514116969      200.8200019740
H                58.1315401999       52.0405259668      202.7330029415
H                57.1744759685       53.1775712435      203.3415077018
H                56.7443173772       51.6327208206      203.4327679762
N                52.9438946713       56.7124205062      201.7387061809
C                51.6347819690       57.0569513005      202.2258067988
C                51.3652321046       56.5748272597      203.6716130650
O                50.8490999036       57.3587998746      204.5030472140
H                52.9183735453       56.1769427914      200.9957371752
H                51.5277978470       58.0356445412      202.2246248624
H                50.9282187368       56.6566810463      201.6576714642
N                51.6934381714       55.3045604901      203.9746300117
C                51.7409213026       54.7963573230      205.3335659789
C                52.6555627369       55.6583779912      206.2200203147
O                52.2454602099       56.1213274372      207.3505196455
C                52.1856475231       53.3753166932      205.4399480433
C                51.1972179328       52.3777643177      205.0145799698
C                51.9612119000       51.1508581485      204.7009724136
C                50.1801966443       52.0138351185      205.9845041652
H                51.9344108233       54.6864427304      203.3507100538
H                50.8000162468       54.8938167155      205.6647470315
H                52.9913308222       53.2689340671      204.8786033209
H                52.4075147487       53.1865513379      206.3828698335
H                50.6607115767       52.7413540192      204.2380634126
H                51.3599280364       50.4232929748      204.3427337329
H                52.6276395574       51.3444559326      203.9530426666
H                52.4453654085       50.8211325228      205.4704367073
H                49.5548180021       51.3310823000      205.6268496617
H                50.6208340447       51.6389592893      206.7997615372
H                49.6563195487       52.8150857239      206.2567148829
O                56.1757869784       54.2951638360      193.9209095773
H                56.7505676952       54.9263653738      194.1524539597
H                55.7316359796       54.6430748192      193.2424006670
O                54.6300427127       48.5158542991      191.7872174808
H                55.3812274697       48.7335270834      192.2129533518
H                54.0557171398       48.4120137458      192.4712437748
O                46.4579547238       48.5158542991      194.5585276059
H                45.7067699668       48.7335270834      194.1327917348
H                47.0322802968       48.4120137458      193.8745013119
N                46.2759447094       56.1752749617      196.2395086677
C                47.4362855620       55.3063457908      196.4102734516
C                48.0674364501       55.4540896631      197.8380335884
O                48.5180143645       54.4726576554      198.4791835922
C                48.5007351537       55.5073764747      195.3472795340
H                46.3947146379       56.7983808554      195.5792219234
H                47.1022534072       54.3648822421      196.3330905857
H                49.2337529817       54.8695376203      195.4784500350
H                48.0919108609       55.3829412510      194.4575038785
H                48.8444401773       56.4361687398      195.4231475087
N                48.1242762755       56.6505679629      198.3586508122
C                48.7052470694       56.8695757765      199.6484278243
C                47.8003137773       56.4916089948      200.7740187421
O                48.1285367534       55.6164424354      201.5878329766
C                49.1789031211       58.3047951302      199.8113172643
C                50.3366159408       58.4955982889      198.9038453197
S                51.0605324466       59.9217617951      199.4477232481
C                49.7221944067       61.0008527940      198.9142319125
H                47.7762802498       57.4050741758      197.9504995111
H                49.5135538259       56.2676699030      199.6828765131
H                48.4765459219       58.9262993195      199.5396900250
H                49.4682079967       58.4720380123      200.7322916813
H                50.9902971927       57.7293948328      199.0048007260
H                50.0635124937       58.5496296119      197.9649930968
H                49.9877524239       61.9639074712      199.0545379527
H                49.5688380999       60.8621293132      197.9506534782
H                48.9190292425       60.8119170948      199.4286393111
N                46.0333791700       52.9361421531      200.0309318225
C                46.9786512793       51.9782032831      199.5626440923
C                46.5042761670       51.2472232506      198.3732390388
O                46.9827521758       50.1257011862      198.1062987212
H                46.3474218994       53.7985168943      199.9792565583
H                47.8496021763       52.4130236383      199.3508661638
H                47.1573501738       51.3086023388      200.2905030388
N                46.4765846764       51.5341531722      194.3280023232
C                47.3267762156       52.1555884479      193.3777990572
C                47.0433790156       51.6659541952      191.9802307275
O                47.6651166438       52.1406340774      191.0199647784
C                48.8216070739       51.9599287976      193.7193355925
O                49.1983679673       50.6061136805      193.5537335775
H                46.5596729293       50.6236859790      194.3299820389
H                47.1728717501       53.1456202540      193.3979650593
H                49.3651829760       52.5203501724      193.1090288878
H                48.9707721367       52.2467943146      194.6526139847
H                50.0070086901       50.4969578449      193.8977250464
N                45.5252434226       54.4973660916      189.6607911719
C                46.5887724493       55.3844875923      189.3929001673
C                47.5321432806       54.8289885525      188.3460458368
O                48.0235859754       55.5893744141      187.5136891537
C                47.3943618091       55.7447067273      190.6550323256
C                48.5652783957       56.7036015029      190.5573554196
C                48.1795233551       58.0952916197      190.2902780620
C                49.3400976577       56.6021056285      191.8545105795
H                45.4486703725       54.2647893552      190.5832059743
H                46.1908353688       56.2204852865      189.0399756710
H                46.7553830109       56.1498118077      191.2964336474
H                47.7388053440       54.8957794304      191.0235737574
H                49.1247210276       56.4338583443      189.7704830019
H                48.9780816997       58.6723128997      190.2468554185
H                47.6780191562       58.1560981290      189.4395317324
H                47.5903517152       58.4145104535      191.0319435075
H                50.1241609020       57.2404344569      191.8119425229
H                48.7751996316       56.8400245073      192.6048299065
H                49.7055465767       55.6879685012      191.9604551097
N                47.8232082742       53.5335992558      188.3393824580
C                48.7240451448       52.9523363865      187.3535771161
C                48.1342057870       53.0272511950      185.9213355774
O                48.8381620373       53.4074794600      184.9565378275
C                49.0870178768       51.5626913653      187.7163257749
C                50.1720465842       51.4190288538      188.7749611604
C                50.1388431734       50.0275170172      189.4980333993
C                51.5173068032       49.4720581219      189.7636205023
N                51.5573066333       48.4319875786      190.7872122903
H                47.4919755610       52.9360332276      188.9314220554
H                49.5583365711       53.5023957612      187.3289068298
H                48.2682170434       51.0960908036      188.0600787913
H                49.3940496032       51.0706283570      186.9012207131
H                51.0590894371       51.5228111961      188.3534765499
H                50.0444550083       52.1164102863      189.4618312667
H                49.6557409608       50.1063370828      190.3465095408
H                49.6561296022       49.3779356480      188.9038366196
H                51.8932825232       49.0950372675      188.9238230967
H                52.1068121103       50.2242744255      190.0585995730
H                52.4167751827       48.1465576576      190.9397164730
H                51.2219323262       48.7592773494      191.5862512989
H                51.0478808666       47.7141641877      190.5376987838
H                55.5303324628       55.6781798322      190.3229635597
H                52.9661311117       56.3543689884      188.0758150693
H                55.6999863545       51.2435926200      188.0752171693
H                55.1818881890       55.0628838730      201.5860287244
H                53.3902380764       57.4627837232      201.5202282477
H                53.5867350007       55.8686956102      205.9222205255
H                45.5576649737       55.6781798322      196.0227815270
H                46.9159570178       56.9464791615      200.8789294348
H                45.2838345459       52.8856794136      199.5353146633
H                45.8028656964       51.6503222493      197.7854171703
H                46.6791878174       51.8322314635      195.1526848678
H                46.3535117449       50.9580502598      191.8287211005
H                44.7477724454       54.8768007269      189.4126616952
H                47.1814772744       52.7704997758      185.7588945420
