 460 
 
N                65.6840000000       53.8530000000      209.4480000000
C                64.7120000000       52.7680000000      209.2970000000
C                64.1540000000       52.3430000000      210.6630000000
O                62.9480000000       52.0740000000      210.7990000000
C                65.3260000000       51.5660000000      208.5590000000
C                65.8010000000       51.9730000000      207.1740000000
C                64.2930000000       50.4490000000      208.5280000000
C                66.5630000000       50.8720000000      206.4640000000
H                66.4740000000       53.6870000000      209.1510000000
H                63.9820000000       53.1080000000      208.7570000000
H                66.1140000000       51.2450000000      209.0250000000
H                65.0300000000       52.2020000000      206.6310000000
H                66.3890000000       52.7400000000      207.2550000000
H                64.6650000000       49.6870000000      208.0570000000
H                64.0710000000       50.1990000000      209.4380000000
H                63.4990000000       50.7660000000      208.0690000000
H                66.7780000000       51.1660000000      205.5650000000
H                67.3790000000       50.6850000000      206.9550000000
H                66.0090000000       50.0760000000      206.4280000000
N                65.0300000000       52.2310000000      211.6850000000
C                64.5740000000       51.8690000000      213.0310000000
C                63.5630000000       52.8890000000      213.5400000000
O                62.4890000000       52.5320000000      214.0350000000
C                65.7540000000       51.7510000000      214.0130000000
C                66.2840000000       50.3210000000      214.3500000000
C                67.2960000000       50.2740000000      215.5730000000
C                68.3530000000       49.1280000000      215.4160000000
N                69.1810000000       49.1980000000      214.0870000000
H                65.8780000000       52.3590000000      211.6200000000
H                64.1550000000       50.9960000000      212.9840000000
H                66.5010000000       52.2430000000      213.6380000000
H                65.4810000000       52.1520000000      214.8530000000
H                65.5280000000       49.7550000000      214.5730000000
H                66.7450000000       49.9690000000      213.5730000000
H                67.7710000000       51.1180000000      215.6280000000
H                66.8010000000       50.1180000000      216.3920000000
H                68.9800000000       49.1790000000      216.1550000000
H                67.8920000000       48.2750000000      215.4300000000
H                69.7770000000       48.5380000000      214.0640000000
H                68.6380000000       49.1220000000      213.3860000000
H                69.6100000000       49.9760000000      214.0360000000
N                63.8840000000       54.1740000000      213.4130000000
C                63.0540000000       55.1980000000      214.0330000000
C                61.6710000000       55.1930000000      213.4080000000
O                60.6390000000       55.2170000000      214.0960000000
C                63.7190000000       56.5710000000      213.8900000000
C                62.7260000000       57.6380000000      214.3310000000
C                65.0120000000       56.5810000000      214.6540000000
H                64.5660000000       54.4730000000      212.9820000000
H                62.9630000000       54.9990000000      214.9780000000
H                63.9540000000       56.7710000000      212.9700000000
H                63.1600000000       58.5050000000      214.3010000000
H                61.9650000000       57.6290000000      213.7300000000
H                62.4360000000       57.4450000000      215.2360000000
H                65.4530000000       57.4340000000      214.5170000000
H                64.8220000000       56.4550000000      215.5970000000
H                65.5760000000       55.8620000000      214.3310000000
N                61.6470000000       55.1800000000      212.0780000000
C                60.4070000000       55.2100000000      211.3100000000
C                59.5710000000       53.9750000000      211.5950000000
O                58.3510000000       54.0500000000      211.7880000000
C                60.7520000000       55.3380000000      209.8190000000
C                61.1490000000       56.7920000000      209.5520000000
C                59.6120000000       54.8200000000      208.9360000000
C                61.5810000000       56.9180000000      208.1500000000
H                62.3510000000       55.1540000000      211.5840000000
H                59.8790000000       55.9790000000      211.5780000000
H                61.5070000000       54.7740000000      209.5880000000
H                60.3890000000       57.3750000000      209.7030000000
H                61.8830000000       57.0460000000      210.1330000000
H                59.8510000000       54.9470000000      208.0040000000
H                59.4750000000       53.8770000000      209.1160000000
H                58.8030000000       55.3160000000      209.1400000000
H                61.8400000000       57.8380000000      207.9810000000
H                62.3360000000       56.3290000000      207.9980000000
H                60.8450000000       56.6700000000      207.5690000000
N                60.2120000000       52.8190000000      211.6100000000
C                59.5330000000       51.5920000000      211.9890000000
C                58.8820000000       51.7250000000      213.3720000000
O                57.7820000000       51.2020000000      213.6000000000
C                60.5640000000       50.4710000000      211.9180000000
O                59.9180000000       49.2340000000      211.8650000000
H                61.0410000000       52.7150000000      211.4040000000
H                58.8060000000       51.3800000000      211.3830000000
H                61.1050000000       50.5840000000      211.1210000000
H                61.1270000000       50.5030000000      212.7080000000
H                60.4850000000       48.6150000000      211.8400000000
N                59.5350000000       52.4450000000      214.2950000000
C                58.9390000000       52.7090000000      215.6000000000
C                57.7690000000       53.6780000000      215.4700000000
O                56.7050000000       53.4770000000      216.0690000000
C                59.9920000000       53.2640000000      216.5660000000
O                59.3610000000       53.9380000000      217.6480000000
H                60.3170000000       52.7870000000      214.1870000000
H                58.6100000000       51.8740000000      215.9680000000
H                60.5220000000       52.5310000000      216.9140000000
H                60.5610000000       53.8890000000      216.0910000000
H                59.9400000000       54.2240000000      218.1850000000
N                57.9490000000       54.7550000000      214.7100000000
C                56.8430000000       55.6870000000      214.5360000000
C                55.6260000000       54.9810000000      213.9710000000
O                54.4990000000       55.2820000000      214.3640000000
C                57.2430000000       56.8490000000      213.6350000000
H                58.6760000000       54.9610000000      214.3000000000
H                56.6180000000       56.0560000000      215.4040000000
H                56.4920000000       57.4580000000      213.5540000000
H                58.0000000000       57.3090000000      214.0300000000
H                57.4840000000       56.5030000000      212.7610000000
N                55.8240000000       54.0140000000      213.0720000000
C                54.6670000000       53.3580000000      212.4680000000
C                53.9840000000       52.3880000000      213.4170000000
O                52.7640000000       52.2540000000      213.3910000000
C                55.0230000000       52.5800000000      211.2220000000
S                55.5250000000       53.6510000000      209.9350000000
H                56.5910000000       53.7300000000      212.8050000000
H                54.0660000000       54.0830000000      212.2320000000
H                55.7540000000       51.9730000000      211.4190000000
H                54.2480000000       52.0800000000      210.9220000000
H                56.4660000000       54.2970000000      210.3080000000
N                54.7270000000       51.6480000000      214.2340000000
C                54.0100000000       50.7680000000      215.1600000000
C                53.1140000000       51.5980000000      216.0670000000
O                51.9740000000       51.1850000000      216.3580000000
C                55.0060000000       49.8470000000      215.8830000000
C                55.0400000000       48.4580000000      215.0920000000
C                56.4080000000       47.9930000000      214.5080000000
C                56.2370000000       46.9590000000      213.3690000000
N                57.5360000000       46.4110000000      212.8500000000
H                55.5860000000       51.6350000000      214.2720000000
H                53.4200000000       50.1530000000      214.6970000000
H                55.8920000000       50.2420000000      215.8780000000
H                54.7170000000       49.6920000000      216.7960000000
H                54.7450000000       47.7620000000      215.7000000000
H                54.4260000000       48.5260000000      214.3440000000
H                56.8790000000       48.7620000000      214.1500000000
H                56.9320000000       47.5820000000      215.2130000000
H                55.7130000000       46.2130000000      213.7010000000
H                55.7780000000       47.3840000000      212.6280000000
H                57.3800000000       45.8230000000      212.2000000000
H                58.0380000000       47.0720000000      212.5270000000
H                57.9800000000       46.0060000000      213.5060000000
N                53.5370000000       52.8340000000      216.3720000000
C                52.8190000000       53.6450000000      217.3470000000
C                51.7060000000       54.4860000000      216.7280000000
O                50.6090000000       54.5130000000      217.2760000000
C                53.7750000000       54.5580000000      218.1230000000
O                54.9070000000       53.8210000000      218.6110000000
C                53.0410000000       55.2090000000      219.2690000000
H                54.2280000000       53.2140000000      216.0280000000
H                52.4150000000       53.0270000000      217.9750000000
H                54.1080000000       55.2510000000      217.5330000000
H                55.3900000000       53.5780000000      217.9680000000
H                53.6210000000       55.8450000000      219.7160000000
H                52.2570000000       55.6750000000      218.9390000000
H                52.7610000000       54.5360000000      219.9090000000
N                51.9530000000       55.1890000000      215.6170000000
C                50.9360000000       56.0380000000      214.9780000000
C                50.3400000000       55.4590000000      213.6950000000
O                49.4490000000       56.0680000000      213.0890000000
C                51.5110000000       57.4300000000      214.6530000000
C                52.0710000000       58.0620000000      215.8690000000
C                51.2630000000       58.7310000000      216.7480000000
C                53.3780000000       57.9400000000      216.1780000000
C                51.7620000000       59.2760000000      217.9100000000
C                53.8990000000       58.4820000000      217.3430000000
C                53.0970000000       59.1550000000      218.2100000000
O                53.6530000000       59.7130000000      219.3620000000
H                52.7100000000       55.1920000000      215.2080000000
H                50.2170000000       56.1350000000      215.6220000000
H                52.2190000000       57.3430000000      213.9960000000
H                50.8050000000       57.9990000000      214.3070000000
H                50.3580000000       58.8200000000      216.5560000000
H                53.9430000000       57.4820000000      215.5970000000
H                51.1950000000       59.7260000000      218.4930000000
H                54.8040000000       58.3850000000      217.5330000000
H                54.4830000000       59.5860000000      219.3710000000
N                50.8180000000       54.3190000000      213.2490000000
C                50.3720000000       53.7170000000      211.9990000000
C                49.2470000000       52.7540000000      212.3690000000
O                49.4720000000       51.5600000000      212.6440000000
C                51.5310000000       53.0230000000      211.3010000000
S                51.3110000000       53.1860000000      209.6290000000
H                51.4180000000       53.8580000000      213.6580000000
H                50.0230000000       54.3890000000      211.3920000000
H                52.3700000000       53.4390000000      211.5550000000
H                51.5440000000       52.0810000000      211.5320000000
H                52.0400000000       52.4190000000      209.0630000000
N                48.0280000000       53.2830000000      212.4270000000
C                46.8980000000       52.4080000000      212.6760000000
C                46.7460000000       51.3900000000      211.5520000000
O                46.9730000000       51.6860000000      210.3670000000
H                47.8380000000       54.1160000000      212.3290000000
H                47.0280000000       51.9330000000      213.5110000000
H                46.0840000000       52.9330000000      212.7340000000
N                46.4080000000       50.1550000000      211.9520000000
C                46.1330000000       49.0640000000      211.0270000000
C                47.4020000000       48.6220000000      210.2990000000
O                48.4060000000       48.2530000000      210.9410000000
C                45.0060000000       49.4850000000      210.0530000000
C                43.6080000000       49.6320000000      210.7840000000
C                42.4880000000       50.0580000000      209.8510000000
C                41.1230000000       49.9900000000      210.5510000000
N                39.9920000000       50.4670000000      209.6850000000
H                46.3300000000       49.9250000000      212.7770000000
H                45.8220000000       48.2850000000      211.5130000000
H                45.2320000000       50.3410000000      209.6570000000
H                44.9170000000       48.8120000000      209.3610000000
H                43.3640000000       48.7770000000      211.1710000000
H                43.6860000000       50.3020000000      211.4820000000
H                42.6390000000       50.9720000000      209.5640000000
H                42.4670000000       49.4680000000      209.0820000000
H                40.9420000000       49.0700000000      210.7990000000
H                41.1470000000       50.5490000000      211.3440000000
H                39.2250000000       50.4260000000      210.1360000000
H                40.1340000000       51.3080000000      209.4330000000
H                39.9270000000       49.9550000000      208.9590000000
N                47.3620000000       48.6450000000      208.9560000000
C                48.5340000000       48.2930000000      208.1370000000
C                49.7880000000       49.0700000000      208.5580000000
O                49.7330000000       50.2800000000      208.7750000000
C                48.2410000000       48.6030000000      206.6510000000
O                46.8560000000       48.3430000000      206.3890000000
C                49.1140000000       47.8250000000      205.6710000000
H                46.6680000000       48.8600000000      208.4960000000
H                48.7110000000       47.3460000000      208.2540000000
H                48.4520000000       49.5370000000      206.4930000000
H                46.6500000000       48.6260000000      205.6250000000
H                48.9240000000       48.1060000000      204.7630000000
H                50.0510000000       47.9860000000      205.8620000000
H                48.9350000000       46.8750000000      205.7510000000
N                50.9430000000       48.3840000000      208.6190000000
C                52.2190000000       48.9870000000      209.0670000000
C                53.2570000000       48.3910000000      208.1100000000
O                53.2160000000       47.1750000000      207.8410000000
C                52.4680000000       48.6400000000      210.5340000000
O                53.6490000000       49.2020000000      211.0640000000
H                51.0170000000       47.5540000000      208.4040000000
H                52.2460000000       49.9550000000      209.0050000000
H                51.7170000000       48.9670000000      211.0550000000
H                52.5300000000       47.6750000000      210.6110000000
H                54.0380000000       48.6420000000      211.5540000000
N                54.1500000000       49.2030000000      207.5420000000
C                55.0870000000       48.6990000000      206.5320000000
C                56.2820000000       47.9600000000      207.1000000000
O                56.6550000000       48.1210000000      208.2560000000
C                55.5770000000       49.9670000000      205.8310000000
C                55.3250000000       51.0460000000      206.7430000000
C                54.5190000000       50.5640000000      207.9340000000
H                54.6010000000       48.1160000000      205.9280000000
H                56.5260000000       49.8890000000      205.6450000000
H                55.0860000000       50.0940000000      205.0050000000
H                56.1770000000       51.3960000000      207.0460000000
H                54.8310000000       51.7350000000      206.2730000000
H                55.0590000000       50.5590000000      208.7400000000
H                53.7310000000       51.1140000000      208.0660000000
N                60.3180000000       46.6640000000      207.3850000000
C                61.6100000000       47.3300000000      207.3530000000
C                62.2410000000       47.2420000000      205.9630000000
O                62.8350000000       48.2170000000      205.4890000000
C                62.5120000000       46.7450000000      208.4440000000
C                62.1600000000       47.2370000000      209.8980000000
C                61.8370000000       46.0640000000      210.8400000000
C                60.3980000000       45.5200000000      210.6070000000
N                60.1160000000       44.2790000000      211.3950000000
H                60.2510000000       46.0090000000      207.9390000000
H                61.5020000000       48.2740000000      207.5480000000
H                62.4280000000       45.7780000000      208.4310000000
H                63.4290000000       47.0010000000      208.2590000000
H                62.9170000000       47.7210000000      210.2630000000
H                61.3830000000       47.8170000000      209.8590000000
H                62.4650000000       45.3420000000      210.6800000000
H                61.9040000000       46.3630000000      211.7600000000
H                59.7570000000       46.1970000000      210.8730000000
H                60.2870000000       45.3100000000      209.6660000000
H                59.2820000000       44.0060000000      211.2450000000
H                60.6790000000       43.6320000000      211.1570000000
H                60.2140000000       44.4420000000      212.2640000000
N                60.5410000000       49.9900000000      203.8790000000
C                60.9680000000       51.3290000000      204.2860000000
C                62.3180000000       51.6590000000      203.6780000000
O                62.5150000000       52.7350000000      203.1000000000
C                61.0110000000       51.4330000000      205.8190000000
C                59.5790000000       51.2600000000      206.3480000000
C                61.6150000000       52.7420000000      206.2680000000
C                59.5020000000       50.9610000000      207.7810000000
H                60.4840000000       49.4350000000      204.5340000000
H                60.3210000000       51.9710000000      203.9540000000
H                61.5800000000       50.7330000000      206.1770000000
H                59.0890000000       52.0830000000      206.1920000000
H                59.1580000000       50.5280000000      205.8710000000
H                61.5790000000       52.7910000000      207.2360000000
H                62.5360000000       52.7840000000      205.9680000000
H                61.1070000000       53.4730000000      205.8810000000
H                58.5700000000       50.8790000000      208.0370000000
H                59.9670000000       50.1280000000      207.9550000000
H                59.9190000000       51.6830000000      208.2770000000
N                53.2680000000       53.5260000000      197.9960000000
C                52.3580000000       52.9670000000      199.0050000000
C                52.9640000000       53.0290000000      200.4080000000
O                52.2790000000       53.4000000000      201.3730000000
C                52.0100000000       51.5380000000      198.6360000000
C                50.9130000000       51.4180000000      197.5670000000
C                50.9610000000       50.0200000000      196.8610000000
C                49.5560000000       49.4830000000      196.5900000000
N                49.5310000000       48.4290000000      195.5450000000
H                53.5840000000       52.9560000000      197.4350000000
H                51.5430000000       53.4930000000      199.0160000000
H                52.8060000000       51.1030000000      198.2910000000
H                51.6990000000       51.0780000000      199.4310000000
H                50.0430000000       51.5210000000      197.9850000000
H                51.0410000000       52.1050000000      196.8950000000
H                51.4240000000       50.1040000000      196.0130000000
H                51.4240000000       49.3880000000      197.4320000000
H                49.2010000000       49.1010000000      197.4080000000
H                48.9910000000       50.2120000000      196.2920000000
H                48.6960000000       48.1540000000      195.4090000000
H                49.8570000000       48.7500000000      194.7810000000
H                50.0260000000       47.7340000000      195.8000000000
N                54.2560000000       52.6790000000      200.5220000000
C                55.0240000000       52.8550000000      201.7530000000
C                55.0020000000       54.3050000000      202.2400000000
O                54.7690000000       54.5870000000      203.4290000000
C                56.4910000000       52.4270000000      201.5480000000
O                56.6310000000       51.1570000000      200.8910000000
C                57.1930000000       52.3100000000      202.8720000000
H                54.7170000000       52.3310000000      199.8850000000
H                54.6160000000       52.2870000000      202.4250000000
H                56.8950000000       53.1090000000      200.9890000000
H                57.4440000000       50.9570000000      200.8220000000
H                58.1160000000       52.0450000000      202.7360000000
H                57.1750000000       53.1630000000      203.3340000000
H                56.7520000000       51.6440000000      203.4240000000
N                52.9370000000       56.6920000000      201.7230000000
C                51.6200000000       57.0540000000      202.2380000000
C                51.3740000000       56.5760000000      203.6620000000
O                50.8680000000       57.3350000000      204.4950000000
H                52.9180000000       56.1950000000      201.0210000000
H                51.5290000000       58.0190000000      202.2240000000
H                50.9390000000       56.6640000000      201.6670000000
N                51.7090000000       55.3020000000      203.9540000000
C                51.7290000000       54.8270000000      205.3420000000
C                52.6510000000       55.6670000000      206.2160000000
O                52.2580000000       56.1130000000      207.3090000000
C                52.1890000000       53.3810000000      205.4410000000
C                51.1750000000       52.3680000000      204.9920000000
C                51.9750000000       51.1260000000      204.6590000000
C                50.1640000000       52.0070000000      206.0070000000
H                51.9260000000       54.7070000000      203.3730000000
H                50.8150000000       54.8920000000      205.6580000000
H                52.9780000000       53.2700000000      204.8880000000
H                52.4040000000       53.1890000000      206.3670000000
H                50.6680000000       52.7360000000      204.2520000000
H                51.3700000000       50.4350000000      204.3480000000
H                52.6170000000       51.3410000000      203.9650000000
H                52.4380000000       50.8260000000      205.4570000000
H                49.5650000000       51.3420000000      205.6330000000
H                50.6140000000       51.6450000000      206.7860000000
H                49.6650000000       52.8020000000      206.2520000000
N                53.9080000000       55.8480000000      205.7810000000
C                54.8830000000       56.5060000000      206.6460000000
C                54.4590000000       57.9220000000      206.9510000000
O                54.4880000000       58.3330000000      208.1110000000
C                56.2790000000       56.4860000000      206.0280000000
C                57.1460000000       57.4620000000      206.7740000000
C                56.7880000000       55.1000000000      206.1080000000
H                54.2080000000       55.6040000000      205.0120000000
H                54.9110000000       56.0060000000      207.4770000000
H                56.2780000000       56.7530000000      205.0960000000
H                58.0590000000       57.3790000000      206.4580000000
H                56.8200000000       58.3610000000      206.6120000000
H                57.1040000000       57.2610000000      207.7220000000
H                57.6530000000       55.0560000000      205.6700000000
H                56.8770000000       54.8500000000      207.0410000000
H                56.1620000000       54.5080000000      205.6640000000
N                51.5790000000       59.2290000000      206.9170000000
C                50.4490000000       59.2180000000      207.8280000000
C                50.8790000000       59.2500000000      209.2700000000
O                50.3170000000       60.0060000000      210.0780000000
H                51.5830000000       58.6000000000      206.3310000000
H                49.8910000000       59.9920000000      207.6580000000
H                49.9270000000       58.4140000000      207.6830000000
N                51.9040000000       58.4450000000      209.5950000000
C                52.5000000000       58.4120000000      210.9280000000
C                53.1660000000       59.7360000000      211.2580000000
O                52.8310000000       60.3770000000      212.2440000000
C                53.5220000000       57.2780000000      211.0410000000
H                52.2770000000       57.8990000000      209.0450000000
H                51.7890000000       58.2450000000      211.5670000000
H                53.8750000000       57.2600000000      211.9440000000
H                53.0840000000       56.4370000000      210.8400000000
H                54.2410000000       57.4370000000      210.4090000000
O                57.2130000000       48.7760000000      210.9550000000
H                57.9550000000       49.0840000000      210.7120000000
H                56.6330000000       49.3260000000      210.6770000000
N                52.8340000000       53.5370000000      225.1659943848
C                53.6450000000       52.8190000000      224.1909943848
C                54.4860000000       51.7060000000      224.8099943848
O                54.5130000000       50.6090000000      224.2619943848
C                54.5580000000       53.7750000000      223.4149943848
O                53.8210000000       54.9070000000      222.9269943848
C                55.2090000000       53.0410000000      222.2689943848
H                53.2140000000       54.2280000000      225.5099943848
H                53.0270000000       52.4150000000      223.5629943848
H                55.2510000000       54.1080000000      224.0049943848
H                53.5780000000       55.3900000000      223.5699943848
H                55.8450000000       53.6210000000      221.8219943848
H                55.6750000000       52.2570000000      222.5989943848
H                54.5360000000       52.7610000000      221.6289943848
N                65.3690000000       51.7390000000      221.9749943848
C                65.6630000000       52.6740000000      220.8969943848
C                67.0580000000       53.2730000000      221.0519943848
O                67.7300000000       53.1340000000      222.1029943848
C                64.6840000000       53.8650000000      220.8119943848
C                63.2090000000       53.5460000000      220.7729943848
C                62.7930000000       52.9110000000      219.5049943848
O                63.4170000000       53.1660000000      218.4449943848
N                61.6860000000       52.1220000000      219.5569943848
H                65.5340000000       52.0280000000      222.7689943848
H                65.6050000000       52.1440000000      220.0859943848
H                64.8300000000       54.4270000000      221.5899943848
H                64.8870000000       54.3610000000      220.0029943848
H                62.9990000000       52.9360000000      221.4969943848
H                62.7050000000       54.3690000000      220.8749943848
H                61.2690000000       52.0150000000      220.3019943848
H                61.4030000000       51.7300000000      218.8459943848
N                66.1750000000       59.0420000000      218.0899943848
C                64.7760000000       59.3170000000      218.3679943848
C                64.5890000000       60.8100000000      218.5989943848
O                63.5980000000       61.3720000000      218.1229943848
C                64.3110000000       58.4430000000      219.5369943848
C                62.8130000000       58.2950000000      219.6709943848
C                62.1750000000       57.3440000000      218.6609943848
O                62.7860000000       56.3400000000      218.3059943848
N                60.9110000000       57.6490000000      218.2069943848
H                66.5650000000       58.5420000000      218.6699943848
H                64.2020000000       59.0760000000      217.6249943848
H                64.6810000000       57.5540000000      219.4199943848
H                64.6390000000       58.8340000000      220.3619943848
H                62.6140000000       57.9550000000      220.5579943848
H                62.4040000000       59.1660000000      219.5499943848
H                60.5100000000       58.3540000000      218.4939943848
H                60.5230000000       57.1350000000      217.6379943848
H                65.3940288579       54.5800923148      209.0038676970
H                56.7917711723       47.3184173310      206.5268464161
H                59.6804491787       47.2560315031      207.6152773317
H                62.1734985992       46.3948374971      205.4359712963
H                59.7286724317       50.0376363794      203.4944812136
H                63.0686812067       51.0012843747      203.7403528839
H                52.8343299792       54.1491367406      197.5126461797
H                55.1773398604       55.0509542407      201.5974984792
H                53.3898088768       57.4385285585      201.5046900542
H                54.1556541667       58.5233154627      206.2118105657
H                51.5890507849       60.0043617825      206.4601487245
H                53.8880737549       60.0937664395      210.6658744497
H                52.0770446967       53.8249035782      224.7734001943
H                55.0031096340       51.8774932426      225.6485572591
H                64.4946805614       51.5262148205      221.9580242127
H                67.4639610447       53.7954341022      220.3021555760
H                66.2470308255       58.6238951548      217.2962690553
H                65.2639296744       61.3221594000      219.1301842600
