 212 
 
N                20.6007912986       50.4396825716        2.6664120104
C                19.7582059946       51.1762250690        3.6025141195
C                20.1871857807       51.0045077477        5.0604546804
O                19.4306010700       51.3801307785        5.9748417798
C                18.2732627024       50.9014216026        3.4046271205
O                18.0100891259       49.5003313960        3.3226132706
C                17.7403255128       51.5410456340        2.1193800400
H                20.4349458123       49.4432034607        2.5676859390
H                19.9296550346       52.2398420071        3.3809002015
H                17.7462700549       51.3220398041        4.2755209325
H                18.4035047468       49.0317766514        4.0805146421
H                16.6924788237       51.2937115960        1.9983028003
H                17.8594008671       52.6182553058        2.1568660850
H                18.2694599326       51.1334760245        1.2643321487
N                21.3945438635       50.4978469932        5.3223219389
C                21.8536318943       50.3500834452        6.7024977142
C                21.6476771130       51.6228940102        7.5310752084
O                21.2240403269       51.5751795312        8.6986319192
C                23.3601544270       49.9989811404        6.6920231801
C                23.8459123401       49.7177153000        8.1131073045
C                23.6052596654       48.4921441933        8.7290685314
C                24.5125621260       50.7161567818        8.8136558045
C                24.0636560413       48.2625806013       10.0144416224
C                24.9909456409       50.4635699816       10.0877203039
C                24.7634116811       49.2414630966       10.6856206793
H                22.0445001499       50.2439778373        4.5781190754
H                21.2831367739       49.5593596529        7.2031638668
H                23.4964467406       49.1269426134        6.0523975751
H                23.9060144243       50.8394954624        6.2677443762
H                23.0485464872       47.7254630230        8.2112584213
H                24.6617324182       51.6893727769        8.3706069141
H                23.8609137615       47.3124963827       10.4806949408
H                25.5046655098       51.2445405602       10.6279381363
H                25.1136292553       49.0900132410       11.6945483040
N                22.0377086554       52.8018236296        6.9643897742
C                21.9721068176       53.9921450826        7.8002250939
C                20.5593692278       54.5571192240        7.8919434270
O                20.3105888416       55.5171311445        8.6294158202
C                22.8733554311       55.1240587620        7.2542161085
C                24.3843441648       54.7373468742        7.3499773946
O                24.7461083818       54.1107691359        8.3817648340
O                25.1031191458       55.1036607388        6.4083070008
H                22.4111674941       52.8866472241        6.0193685078
H                22.2872988331       53.7356770693        8.8199019908
H                22.6114652336       55.3427441316        6.2228188815
H                22.7343125636       56.0222853836        7.8539806854
N                19.6124763328       53.9827616933        7.1506687435
C                18.2019607901       54.2767709066        7.3507452197
C                17.5450922710       53.3213651215        8.3181041790
O                16.4585305912       53.6321432170        8.7933215391
C                17.4495330552       54.2906120172        5.9804915104
C                18.0615969050       55.3800993143        5.1541848790
C                18.9508631605       55.3262650289        4.1244362869
C                17.7073183762       56.7722962089        5.2983377363
N                19.1990672253       56.5617388978        3.5894412468
C                18.4744235746       57.4674571252        4.3269753965
C                16.9277573008       57.4994643196        6.2061715589
C                18.3993623176       58.8480485974        4.1950530530
C                16.8944765861       58.8788959534        6.0847297089
C                17.6026984021       59.5476671485        5.0776637245
H                19.8199342587       53.1488414647        6.6125890090
H                18.1462716296       55.2796767796        7.7867179690
H                17.5755153417       53.3157048232        5.5104079235
H                16.3990094038       54.4924847092        6.1738252394
H                19.4391117766       54.4577155393        3.7231509603
H                19.8976564031       56.8099067949        2.8954331432
H                16.3632964256       56.9976069984        6.9766646005
H                18.9600731451       59.3496077720        3.4220776282
H                16.2894819822       59.4535414489        6.7702020231
H                17.5304499359       60.6209269022        5.0050295718
N                18.1271226164       52.1566958118        8.5708206837
C                17.5840877766       51.2303022476        9.5667375407
C                18.2067995217       51.4923294538       10.9344011873
O                17.5088318507       51.2847118025       11.9442081514
C                17.8696700257       49.8000696559        9.1377506769
C                17.4987795038       48.8068115163       10.2333677321
C                17.1582799615       49.5525006468        7.8124151283
H                19.0328904723       51.9346659051        8.1847689422
H                16.5106891722       51.4116719903        9.6522677057
H                18.9557096443       49.7328552188        8.9873080784
H                17.6392221516       47.7926927190        9.8671603753
H                18.1208702446       48.9478851609       11.1128952507
H                16.4608397401       48.9343245133       10.5325647343
H                17.2519103696       48.5102076755        7.5195943348
H                16.0993820056       49.7730269289        7.9182601347
H                17.5748875721       50.1951751559        7.0424628932
N                19.4649010991       51.8972608015       10.9880120367
C                20.0893310520       52.1841686602       12.3229018105
C                20.5733431704       53.6591050839       12.5266115021
O                21.1594018047       54.1550370831       11.5398381747
C                21.3714034140       51.3389596487       12.4071470615
C                21.0129860114       49.8990076068       12.5436853533
C                20.4433842879       49.4441507173       13.7263847405
C                21.1406974688       49.0299330217       11.4597239426
C                20.0617256561       48.1038606065       13.8291031856
C                20.7511313808       47.6998125788       11.5567549570
C                20.2118605723       47.2401108038       12.7463118820
O                19.7908076411       45.9514444713       12.9130427592
O                20.4121299647       54.2482661458       13.6216143295
H                20.0316818796       52.0531367529       10.1711279858
H                19.3665105581       51.9257888220       13.0944845792
H                21.9628771431       51.5269044857       11.5076741356
H                21.9419763457       51.6874741232       13.2730507560
H                20.2988315582       50.1315493241       14.5444320969
H                21.5429844688       49.4124268089       10.5336562996
H                19.5902338339       47.7398757432       14.7249452179
H                20.8469720354       47.0468912536       10.7042327069
H                19.7328521128       45.4948595026       12.0319089193
O                27.3535926794       53.2176611495        8.6049253140
H                27.8124583192       53.7716785488        7.9678715485
H                26.4241701907       53.5151461200        8.5731009232
O                13.9320312031       52.5702086956        9.1265512820
H                14.7844092292       53.0122562972        8.9787575119
H                13.7998851264       52.5269558963       10.0776035027
O                24.0251168729       54.1604406228       11.1514931180
H                24.2374569511       54.1438695972       10.2009159684
H                23.0586180728       54.1314571699       11.2297148870
O                22.7835018543       53.3874099520        4.3889396303
H                23.0432931748       54.3114070540        4.2354460201
H                22.3134364419       53.1155847114        3.5829182075
O                23.5350386069       56.0463127022        4.0105296920
H                24.2202942237       55.8979472326        4.6827122035
H                23.1648985269       56.9145628465        4.1898632417
O                20.9935094067       57.5489693767        1.6176199105
H                21.6660440313       57.1165562533        1.0667002271
H                20.7577620936       58.3481346560        1.1224837326
O                20.8009787268       58.3940081404        6.9645441314
H                20.5813603865       59.1858463667        7.4847989384
H                20.0034818360       58.1861565195        6.4692311669
O                22.0328636894       56.8609461726       10.2333983856
H                21.5082982455       56.4329023914        9.5289262611
H                22.1729145823       56.1601005369       10.8802803850
O                17.1850478660       61.5802632495        1.7808843316
H                16.2909264968       61.7927884437        1.4970440568
H                17.3409377177       62.1307455545        2.5709982342
O                20.1914306558       62.8215556778        3.4807796151
H                19.2559812872       63.0414511992        3.6049480154
H                20.2335138272       61.8642650279        3.4102577085
O                20.5089827265       59.3123249114       -0.2885028146
H                20.9045235710       58.8491442863       -1.0336354177
H                19.5977607522       59.5159200641       -0.5455182232
O                19.5329460483       60.4396626551        8.3775416245
H                18.9091744921       60.9480951861        7.8296357970
H                19.0040841882       59.8002230183        8.8635695974
O                22.9269844436       56.4372744102        0.0664087025
H                23.7044930492       56.8420698095        0.4603808015
H                22.8401354120       55.5686268796        0.4716569492
N                12.8847879183       53.8428524006        2.5645272273
C                12.7356170613       52.3830594752        2.4784562523
C                11.5114752158       51.9088454467        1.7025474083
O                11.2257890954       50.7071446159        1.6635615523
C                12.7399059391       51.8301343768        3.9152820928
C                14.1934419482       51.8508847496        4.4287473398
C                14.2740884125       51.4508534309        5.9105228913
N                13.9553199260       50.0292868215        6.0080835622
C                13.2851980380       49.4710645765        7.0236823341
N                12.8898450346       50.1800954937        8.0864727914
N                12.9746678734       48.1807967153        6.9447319828
H                12.5727234284       54.2828125527        3.4205942212
H                13.5970484403       51.9939055753        1.9221491852
H                12.1040818019       52.4528764790        4.5398304286
H                12.3549016403       50.8133391528        3.9022993296
H                14.7982304908       51.1738184584        3.8285508881
H                14.5829734126       52.8619946292        4.3218739888
H                15.2804860988       51.6444904978        6.2946169792
H                13.5593123214       52.0409183262        6.4802381093
H                14.3775640681       49.4168693810        5.3101837441
H                13.2074321679       51.1224071601        8.2820683732
H                12.3176751656       49.6950346011        8.7642945517
H                13.2624362676       47.6059105683        6.1567014166
H                12.4214680250       47.7700170093        7.6829536704
N                15.1722003282       55.0592493703       14.3253122264
C                14.8169282501       54.9449615042       12.9238406296
C                13.4962588945       54.1399429452       12.9145344353
O                13.4694717943       52.9941833592       12.4832290767
C                15.8595546705       54.1802475913       12.1196884493
C                17.2093235321       54.9176718510       11.9887110542
C                17.1548834863       56.1351842873       11.0748531234
N                18.4405832526       56.8051702348       10.9119791141
C                18.9043177394       57.7267282235       11.7572434199
N                18.1908525773       58.1902965553       12.7701208988
N                20.0459321426       58.3519337857       11.4481554031
H                14.9876482804       54.2447991646       14.9006133913
H                14.6557084676       55.9496934022       12.5237381379
H                16.0467034699       53.2199520062       12.5978083591
H                15.4606329476       53.9959771094       11.1212711356
H                17.5710552725       55.1954075843       12.9827260767
H                17.9451108889       54.2127239233       11.5908966540
H                16.8297573491       55.8020081719       10.0860713639
H                16.4333416760       56.8649610465       11.4479864517
H                19.1031971832       56.3842179960       10.2714908773
H                17.3220949091       57.7709562188       13.0859809579
H                18.5769068918       58.9169850381       13.3491086917
H                20.7349259375       57.8900579401       10.8392480664
H                20.4600119399       58.9483837633       12.1467617624
N                18.1324224852       56.2546941691       -1.3825183112
C                19.2437721267       55.4668417528       -0.9378586231
C                19.5885096924       54.3150618135       -1.8696932080
O                20.7198358884       53.8099437285       -1.8601473136
C                18.9757463878       54.8673395906        0.4664344924
H                17.3498501704       56.4013441387       -0.7420739421
H                20.1474399392       56.0898584855       -0.8804010939
H                19.8214989945       54.2574622775        0.7709628226
H                18.8277836682       55.6691974853        1.1815987500
H                18.0824325936       54.2492174404        0.4277447200
H                20.4990974702       50.7794974587        1.8392577274
H                16.0544186545       55.2211353486       14.3993646051
H                12.6554604204       54.5546212489       13.2625284444
H                13.7538299944       54.0614796287        2.4810526497
H                10.9362086593       52.5712263068        1.2226307643
H                18.4157395840       57.0830966171       -1.5910388270
H                18.8985968765       53.9574314378       -2.4990745081
