 123 
 
N                67.5809214827       55.4375838602      210.7144542259
C                66.3639357018       56.0556357231      210.2584683808
C                65.2963394894       54.9960935134      210.0093111558
O                64.1077185020       55.1766212969      210.3667927488
C                66.5561365528       56.9797681071      209.0809842523
C                65.2967516652       57.4162230326      208.5645542630
C                67.4205171080       58.1767079926      209.4188692030
H                68.2938917761       55.6047017149      210.1592383312
H                66.0290038457       56.6239385652      211.0252661145
H                67.0278604899       56.4430243032      208.3604600175
H                65.4202524498       58.0555959549      207.8114448723
H                64.7430108709       56.6565139171      208.2509512896
H                64.7897094904       57.8926826090      209.2889541881
H                67.5636824015       58.7312776598      208.6238098564
H                67.0008268622       58.6864250447      210.1365862905
H                68.3215187344       57.8457824210      209.7414806136
N                63.8552196206       54.1975942934      213.4301590826
C                63.0687430592       55.2152226911      214.0207962806
C                61.6775182625       55.1940773917      213.4279975921
O                60.6405850813       55.2232316140      214.1266486657
C                63.7144144552       56.5372948975      213.9104410803
C                62.7245424852       57.6171632410      214.3172523288
C                64.9957790796       56.5664982462      214.6248791607
H                64.5911564729       54.4827474462      212.9665291733
H                62.9610976634       54.9954972212      214.9938663576
H                63.9571916743       56.7733785317      212.9539969498
H                63.1673781012       58.5191320296      214.3004088782
H                61.9523271445       57.6289967465      213.7200129225
H                62.4310806114       57.4418488816      215.2513174844
H                65.4604559907       57.4482891562      214.5145879234
H                64.8190189389       56.4529242781      215.6131164978
H                65.5857339835       55.8501646283      214.3254383329
N                62.4558980483       63.6077770417      207.7207254073
C                61.6688733699       64.0309613057      208.8573833981
C                61.1960985397       65.4410610232      208.6993090633
O                60.1232767079       65.7398118281      209.1628406020
C                62.4528534870       63.9336678295      210.1864052845
C                63.0895619056       62.6061124534      210.5477312934
C                62.4235443707       61.3987973786      210.4058587238
C                64.3287994736       62.5414357336      211.0822387443
C                63.0094054692       60.1768718890      210.7649950068
C                64.9413914843       61.3765710373      211.4450249955
C                64.2943724647       60.1848057906      211.2872668096
O                64.9113796892       59.0552370975      211.6524065539
H                63.3750374202       63.6234239516      207.9111280628
H                60.9055710964       63.4125112739      208.9193650361
H                63.1803428403       64.6063458980      210.1482959063
H                61.8273587663       64.1659670092      210.9159729628
H                61.5219158223       61.3979408235      210.0323261172
H                64.8187084179       63.3845010399      211.2401178180
H                62.5458118848       59.3514228364      210.6412553393
H                65.8381205145       61.3888045161      211.8367791282
H                65.7597312185       59.2248904225      211.8618434371
O                66.8886770667       59.3781746054      213.5784869297
H                67.5895706220       59.8893966729      213.3725296456
H                66.4086121699       59.9323515716      214.1020481080
N                68.8898621853       59.3400798816      218.0822048185
C                68.2224014498       59.2415899896      216.8130298920
C                66.7551247984       59.5495552948      217.0001683683
O                66.1346820112       60.2181829445      216.1851484761
C                68.3682420777       57.8783884622      216.1004868673
C                69.7922713219       57.5086212141      215.6897102539
C                70.3939208891       58.4383543310      214.6527638500
O                69.7008608674       58.8194024336      213.6240359169
O                71.5483820829       58.8687268521      214.8942825264
H                69.2434658938       58.5207396477      218.3825496276
H                68.6590719683       59.9133198025      216.2142611966
H                68.0436042714       57.1747446365      216.7253419443
H                67.8158952326       57.8809540854      215.2894214226
H                70.3750246307       57.5459401888      216.4986005297
H                69.7974317615       56.5944151187      215.3266917468
N                66.5279243831       63.3466278768      217.2766599380
C                66.6742383673       63.8846482213      215.9443713387
C                65.3184931066       63.8302787545      215.1478972437
O                64.9924150167       64.7278000790      214.3410944887
C                67.7630892148       63.1990522136      215.1501049094
C                68.1243901867       63.7211178005      213.8162916703
C                68.8977570724       62.6769465802      212.9532164991
C                70.2114882870       62.2859346123      213.5684218366
N                70.8589184118       61.3528563634      212.7167153069
H                67.1692568090       62.7078522788      217.4666397864
H                66.9085939397       64.8509307820      216.0180825524
H                68.5921844378       63.1884138160      215.7074821211
H                67.4828206671       62.2333160260      215.0242352603
H                67.3013936877       63.9809540370      213.3179380570
H                68.7054533565       64.5219171274      213.9067332507
H                68.3327459297       61.8757859132      212.8555615944
H                69.0719854247       63.0675634909      212.0536331992
H                70.7766184077       63.0904043802      213.6998175345
H                70.0505477247       61.8542463724      214.4472332794
H                71.6932795577       61.0975678982      213.0595339386
H                70.3766837485       60.6086746510      212.5623695504
H                71.0542773328       61.7481870152      211.8779112685
N                64.5540227374       62.7762069299      215.3357871432
C                63.3095632193       62.6380231898      214.6755799853
C                62.3418521185       63.6644233429      215.1704971937
O                61.7029711751       64.3600792110      214.4357253368
C                62.7717121759       61.2493708839      214.8087180789
C                61.3341453868       61.0798442561      214.5888544448
C                60.8010733517       60.9022663921      213.4399665488
C                60.4684857067       61.1170992656      215.6143928075
C                59.4165832239       60.7039161736      213.2738839756
C                59.1173936388       60.9289139816      215.4518683901
C                58.5847138607       60.7381777446      214.2332075316
H                64.7819652941       62.0746409665      215.8889668766
H                63.4382221913       62.7915667162      213.6822250292
H                63.2542085143       60.6424720220      214.2125067813
H                62.9650348205       60.9655941661      215.7697074277
H                61.3703885500       60.9422357927      212.6113973361
H                60.8092777398       61.2473612655      216.5455823772
H                59.0653550126       60.5615750852      212.3315741771
H                58.5211879388       60.9284470653      216.2546465505
H                57.6351375804       60.6362283410      214.1232006812
H                67.7893045970       55.7514196744      211.5318180123
H                65.5387293458       54.1395115342      209.5537735937
H                64.1602671550       53.6437847351      214.0706596485
H                61.5572386115       55.1552015381      212.4360190271
H                62.2276554977       62.7673976213      207.4934199566
H                61.7654168779       66.1084485971      208.2192356773
H                69.5733056108       59.9221140694      218.0178519749
H                66.2703662018       59.2045680763      217.8039052170
H                66.6071097416       64.0105233295      217.8791319348
H                62.2071119084       63.7918163064      216.1531548699
