 376 
 
N               -31.3771149480       67.4086981798       18.1363021266
C               -32.6894536721       67.5599062049       17.5617919615
C               -33.0929836125       66.3137565198       16.8000132187
O               -34.2405199153       65.9438782408       16.7637510474
C               -32.7353151655       68.8099068098       16.7085190140
C               -32.9087462920       70.0680561562       17.5684030655
C               -32.2037032475       70.0352451616       18.9354268495
C               -32.4599194521       71.2818854412       16.7524009007
H               -30.6812356997       68.1303081279       17.9645847231
H               -33.4428944234       67.6402899387       18.3677694715
H               -31.8216510139       68.8652023581       16.1306929560
H               -33.5774334592       68.7456689425       16.0189066255
H               -33.9865695357       70.2007213287       17.7812400505
H               -32.4506386599       70.9626605598       19.4646545825
H               -32.5460672730       69.2190618921       19.5562170955
H               -31.1281921899       69.9954027912       18.8329558051
H               -32.8008206740       72.2015862251       17.2416108534
H               -31.3814004927       71.3208177909       16.6902374316
H               -32.8896871611       71.2534617769       15.7623367874
N               -32.1389999965       65.6377873190       16.2166482185
C               -32.4112453871       64.2931596780       15.7738009296
C               -32.7816738529       63.3831605154       16.9453841196
O               -33.8928592168       62.8845579107       16.9841486979
C               -31.2366663423       63.6948754377       14.9983489364
C               -31.5811421485       62.2806533985       14.5105615504
C               -32.7017315337       62.3254401317       13.4584050116
O               -33.8636632042       62.5618823616       13.7257204712
N               -32.3488009891       62.1915227608       12.1737802078
H               -31.1933360415       66.0393962697       16.1064994064
H               -33.3011212213       64.3149606347       15.1354720843
H               -31.0221725587       64.3461689351       14.1288382009
H               -30.3519154003       63.6645220643       15.6266443869
H               -30.6931398993       61.8181692976       14.0676068054
H               -31.9238608347       61.6758943135       15.3265397785
H               -31.2834633533       61.8060181325       11.9969193881
H               -32.9117883950       62.0935849378       11.4736155752
N               -31.8430493073       63.1293877134       17.8766900859
C               -32.0699006292       62.0920359361       18.8867391588
C               -33.4196899904       62.3002479039       19.6312433693
O               -34.0334404997       61.3599632822       20.1309352175
C               -30.8218871351       61.7794800556       19.7758316318
C               -30.5779795396       62.5677806136       21.0819889448
C               -29.5907669475       61.9073061032       22.0815596918
O               -29.4627771098       60.7028856850       22.2477973093
N               -28.8265047026       62.7723573463       22.7905970476
H               -30.9191075121       63.5359217406       17.7880205485
H               -32.2541552905       61.1554510769       18.3305353625
H               -30.9201963021       60.7297238766       20.0690202118
H               -29.9523046821       61.8635928454       19.1294405849
H               -30.2531943481       63.5838046684       20.8690639593
H               -31.5324047505       62.6392355753       21.6213067076
H               -29.0873155488       63.7534779809       22.8603757745
H               -28.2981406592       62.4015256693       23.5382039378
N               -33.8469234617       63.5651039280       19.6161047233
C               -35.0524505633       64.0265441845       20.2435372730
C               -36.2364000331       63.8601285176       19.3139676310
O               -37.1760461637       63.1849162662       19.7261010291
C               -34.8270298006       65.4345257168       20.7708396923
C               -33.9202876841       65.3891091955       22.0066048007
C               -34.4679224359       65.3418129258       23.2918466333
C               -32.5161509715       65.3897213516       21.9195981544
C               -33.6719523501       65.3543956382       24.4574643448
C               -31.7048139671       65.4251837571       23.0761938987
C               -32.2889776110       65.4381496333       24.3518759338
O               -31.5499586374       65.5376864446       25.4998226458
H               -33.2429308123       64.2757101048       19.2336428590
H               -35.2726106419       63.3558012012       21.0910615475
H               -34.3630420427       66.0339000997       19.9874174076
H               -35.7763958200       65.8892578895       21.0463606614
H               -35.5326591431       65.3159524813       23.4048197009
H               -32.0496058888       65.3744300559       20.9712344260
H               -34.1340833049       65.3240183222       25.4077360904
H               -30.6409843092       65.4572271329       23.0065170256
H               -30.5828420522       65.6227434608       25.2766704832
N               -36.2819502079       64.3243383412       18.0954890126
C               -37.3966977827       63.8912248923       17.2501761939
C               -37.6281716863       62.3819396609       17.4250408041
O               -38.7578271221       61.9448238477       17.6605978718
C               -37.1153903790       64.2508108320       15.7902930897
C               -38.3483691214       64.0927343862       14.8946778944
C               -37.9347700824       64.1263473478       13.4004794567
N               -39.1305538064       64.0901418578       12.5293417444
C               -39.1667810842       64.0690053882       11.1954021373
N               -37.9794856328       64.0527517339       10.4905160589
N               -40.3364949649       64.1054099497       10.5697317582
H               -35.5371987844       64.8702959743       17.6457863564
H               -38.3231848008       64.3580557063       17.5769287885
H               -36.7683088975       65.2864514728       15.7668295792
H               -36.3024435898       63.6233229576       15.4177952180
H               -38.8354855473       63.1454034346       15.1082137460
H               -39.0560179377       64.9001770702       15.0944341516
H               -37.3843896517       65.0521437776       13.2052724428
H               -37.3035076024       63.2715179238       13.1888916438
H               -40.0215525779       64.1205179213       13.0177434856
H               -37.1327074983       63.9776163063       10.9665445400
H               -38.0271644427       63.9998509660        9.4937920162
H               -41.1894324899       64.1237030707       11.0702501660
H               -40.3652065688       64.0556659868        9.5537930341
N               -36.5208514259       61.6301993748       17.2477317844
C               -36.4934869602       60.1789703889       17.2231637967
C               -36.7801615765       59.5364258573       18.5769625422
O               -36.8162597855       58.3164205793       18.7046208784
C               -35.1707837545       59.5831123930       16.7193316509
C               -35.0524039560       59.3981520463       15.1992862886
C               -34.2550165877       58.0860859980       14.8172021011
O               -33.1869603253       58.2392047658       14.2006009684
O               -34.7714264625       56.9929158693       15.1357629305
H               -35.6417914333       62.0950050972       17.0767468447
H               -37.3168698936       59.8291754516       16.5673529458
H               -34.3536782325       60.1954895528       17.0894336991
H               -35.0990571990       58.5935428928       17.1625928372
H               -36.0538537350       59.2655130785       14.7639925790
H               -34.5809653090       60.2586773266       14.7224868833
N               -37.0562661880       60.3769501444       19.5639337409
C               -37.4980920009       59.8767847466       20.8235409588
C               -38.8886479933       60.3924735085       21.1558606709
O               -39.7060645725       59.6544993998       21.6831666779
C               -36.4660273477       60.1109307502       21.9176003454
C               -36.9751358471       59.5647718854       23.2406544467
S               -37.7746184006       57.8733691399       23.1151415514
C               -37.5708884167       57.4084424053       24.8870557977
H               -36.9205079391       61.3849400014       19.4763395439
H               -37.5978795250       58.7936423308       20.7075512341
H               -35.5399974744       59.6275716194       21.6212546422
H               -36.2733585773       61.1815450293       22.0303617995
H               -36.1487892007       59.4698551967       23.9559516649
H               -37.7341655250       60.2271866067       23.6617090181
H               -38.0364089326       56.4501351603       24.9812180811
H               -36.5098282393       57.3653468072       25.1330599608
H               -38.0879408860       58.1414518895       25.5065214992
N               -39.2434485401       61.6317452731       20.7928002743
C               -40.6361452018       61.9370706470       20.9406399676
C               -41.4070236871       60.8158116705       20.2984273926
O               -42.2671810409       60.1139706467       20.8521531675
C               -41.0621408211       63.1881738223       20.2075212875
C               -41.1105283143       64.4357459848       21.0784152652
C               -42.3716817718       65.2177451605       20.7648877204
C               -40.9947201177       64.1823255954       22.5625430422
H               -38.5967556244       62.2815412098       20.3805395395
H               -40.8861468570       61.9335307988       22.0029340004
H               -40.3954408532       63.3337357933       19.3565542378
H               -42.0675406266       63.0175128040       19.8099466934
H               -40.2475367240       65.0786244318       20.8179664226
H               -42.5043091028       66.0212746623       21.4898640464
H               -42.2925311499       65.6524318133       19.7742417892
H               -43.2378316336       64.5728538834       20.7905027020
H               -41.0763845312       65.1303002157       23.1087716472
H               -41.7751067857       63.5286303444       22.9253919345
H               -40.0305373498       63.7504972088       22.8160298902
N               -41.1165459524       60.7270628983       19.0114724254
C               -41.8354218507       59.7879432759       18.1821449550
C               -41.7720872540       58.3671414191       18.7662502834
O               -42.7823678248       57.6643535938       18.8431342593
C               -41.2895822372       59.9420437185       16.7495380194
C               -41.7869258029       61.2941039073       16.2124510426
C               -41.6982137161       58.7660902524       15.8601268325
C               -41.3806128840       61.5608541133       14.7552373914
H               -40.3292203103       61.2097937187       18.6038959355
H               -42.9070494561       60.0385744904       18.1954733517
H               -40.1991847401       59.9578907217       16.8095121806
H               -42.8790554545       61.3179844025       16.2873301017
H               -41.3902397659       62.0794961971       16.8471047349
H               -41.2432210981       58.8449591497       14.8841096011
H               -41.3807388866       57.8281730152       16.3087292896
H               -42.7844085880       58.7325273328       15.7529023052
H               -41.6506162228       62.5809154932       14.5094872489
H               -40.3082034120       61.4247536694       14.6467821225
H               -41.8950669409       60.8875679707       14.0861851984
N               -40.5564150462       57.9458521270       19.1762868457
C               -40.2997389772       56.5825547264       19.6267854763
C               -40.9940765227       56.2450143323       20.9580250286
O               -41.1710978595       55.0720712972       21.2847138405
C               -38.8003927036       56.2867202626       19.7635767564
H               -39.7598469561       58.5549549301       19.1076281316
H               -40.7453703803       55.9021423129       18.8856873204
H               -38.6881871469       55.2339725122       19.9740611429
H               -38.2738081331       56.5432272877       18.8549986913
H               -38.3993643911       56.8562178789       20.5906922088
N               -41.4159763687       57.2861083465       21.6793430195
C               -42.2312428669       57.0892845213       22.8310438053
C               -43.6680856706       57.5044694576       22.5631279587
O               -44.4810441642       57.6214586852       23.4638759781
C               -41.6262658733       57.6745682275       24.0752509352
C               -41.1838533812       56.5727749244       25.0834886969
O               -41.5694104323       55.4010637787       24.9641481169
O               -40.4799884419       57.0187097557       26.0250764704
H               -41.1106080970       58.2270219581       21.4581387935
H               -42.2885081972       55.9919970558       22.9842541991
H               -40.7649995050       58.2941950053       23.8331865106
H               -42.3713206830       58.2750747135       24.5991173345
N               -43.9902925850       57.6267684784       21.2720890313
C               -45.3431562555       57.8444917141       20.7939904626
C               -45.8441154753       59.2383740615       21.1800170212
O               -47.0215398406       59.4297195959       21.5050595905
H               -43.2831089111       57.4967365751       20.5529830287
H               -45.3351830235       57.7485886752       19.7109294922
H               -46.0232753798       57.1246042548       21.2346829169
N               -44.9089646089       60.2132635226       21.1540525103
C               -45.1873168094       61.4890805074       21.7671450448
C               -45.4229595887       62.5912916484       20.7602810164
O               -44.6554486358       62.8119398786       19.8332087636
C               -44.0448645905       61.9286618921       22.6602426482
C               -43.8882907889       60.9828522167       23.8317453050
C               -44.3516844681       63.3364353980       23.1252617244
C               -42.5160411433       60.9736859163       24.4163690284
H               -43.9612476631       59.9940763030       20.9223023591
H               -46.1091467651       61.3408786873       22.3542521331
H               -43.1440664095       61.9152663526       22.0489269588
H               -44.6177764331       61.2755780661       24.6085197952
H               -44.1493627658       59.9674708633       23.5257516861
H               -43.5466058564       63.7011755333       23.7631932389
H               -44.4365695652       64.0467761970       22.3073341589
H               -45.2718606313       63.3528063130       23.6878330922
H               -42.4711762537       60.3482760397       25.3089716758
H               -41.7869284922       60.6026919358       23.7042035340
H               -42.2049300069       61.9841951667       24.7256360273
N               -46.5119147882       63.3185450195       21.0506637871
C               -46.9146083390       64.5329003738       20.3808055944
C               -46.1273791685       65.7535922063       20.8850627062
O               -46.3027863497       66.1899461840       22.0167898670
C               -48.3950755460       64.7471815453       20.6568617120
C               -48.9593422508       66.0825260493       20.0476249135
O               -48.1474909861       66.8621862384       19.4779619810
O               -50.1892442065       66.2671289966       20.1970862091
H               -46.9970449394       63.1537650652       21.9105482894
H               -46.7515897851       64.4100896171       19.2954046074
H               -49.0017859036       63.9275638536       20.2511284592
H               -48.5760069700       64.8248870572       21.7258579054
N               -45.2083746794       66.3313853672       20.1043860699
C               -44.6373483154       67.5605421886       20.5792467902
C               -45.6476792643       68.6311287522       21.0285364558
O               -45.4478848940       69.1419599764       22.1135742320
C               -43.7606440021       68.0705868753       19.4384347845
C               -44.2778946007       67.3477127978       18.2085199521
C               -44.8495624828       66.0402516703       18.7296345846
H               -44.0584059513       67.3638835197       21.4880398137
H               -43.8457125000       69.1522136580       19.3193252082
H               -42.7133616414       67.8334808717       19.6229294872
H               -45.0770281394       67.9299343796       17.7396373117
H               -43.5008406317       67.1916001871       17.4563545615
H               -45.7433750774       65.7477966464       18.1453200516
H               -44.1459541692       65.2061356264       18.6870856113
N               -46.5149191798       68.6269474827       24.5363774091
C               -45.5454839107       68.2098146750       25.5190657085
C               -44.5573920227       69.3464939691       25.8174901936
O               -44.1066320035       69.5605102748       26.9447556651
C               -44.9174379048       66.8727796622       25.1192535507
C               -45.7200690719       65.6832901615       25.6962286934
C               -46.7635264181       65.1341862997       24.7321527685
C               -44.7789233182       64.5846967676       26.1921892120
H               -46.6846535411       68.0189460521       23.7451320056
H               -46.0811817688       68.0812179783       26.4780063562
H               -44.8618177459       66.8128072008       24.0429475289
H               -43.8959264894       66.8444031449       25.5270377741
H               -46.2581261816       66.0497119552       26.5903456339
H               -47.0092991337       64.1112715023       25.0040276384
H               -47.6905308413       65.7106298196       24.8040564535
H               -46.4316351189       65.1856648232       23.7177492626
H               -45.3475902354       63.7382272111       26.5525568156
H               -44.1032062241       64.2708376625       25.4201225394
H               -44.1761320926       64.9680633736       27.0229406684
N               -44.2427425549       70.0885924545       24.7701383957
C               -43.4274033463       71.2821155357       24.8923835128
C               -43.6986223679       72.0074453447       26.2364133517
O               -42.8367784435       72.2082528087       27.0671929639
C               -43.6637765441       72.1729651758       23.6498816892
C               -43.6860157865       71.4140620297       22.2859420901
C               -43.5458287397       72.3851042064       21.0980995179
C               -42.6256872615       70.3178306089       22.1500475422
H               -44.6839853476       69.9051356229       23.8739984734
H               -42.3684908342       70.9734975580       24.9242953088
H               -44.6205340822       72.6738681332       23.7396483903
H               -42.8792660981       72.9297088458       23.6314524074
H               -44.6639113623       70.9618425813       22.1923565210
H               -43.6927709628       71.8353899098       20.1786329309
H               -44.2965147773       73.1580621206       21.1712000159
H               -42.5546641928       72.8322504413       21.0828186076
H               -42.6761443613       69.8800871415       21.1678176386
H               -41.6240562521       70.7412913229       22.2786287422
H               -42.7525591032       69.5267366583       22.8864342797
N               -46.5248468097       58.3696946824       31.6206892889
C               -46.3864176605       59.5516410386       30.8283801082
C               -45.6472561558       60.6400450282       31.6110715601
O               -44.5215939554       61.0136960559       31.2832783430
C               -47.7554186498       60.0104368459       30.3690553003
C               -47.7162530141       61.3793196721       29.6994932803
C               -48.7108595933       61.5480982641       28.5466328382
N               -48.1958673963       60.9418138271       27.3067462400
C               -48.3342299842       61.3722849882       26.0289340454
N               -48.8261537025       62.5823604566       25.7649637797
N               -47.9203491360       60.6126737209       25.0235884115
H               -47.4685236209       57.9907549371       31.7187011369
H               -45.7440779816       59.3128890377       29.9438983875
H               -48.1400267493       59.2355533293       29.6683219454
H               -48.4248829391       60.0236357505       31.2122762932
H               -47.9108150988       62.1465453701       30.4170399715
H               -46.7098706856       61.5540126840       29.2815285824
H               -49.6614406720       61.0644077106       28.7927843464
H               -48.8796518185       62.5989978111       28.3578443383
H               -47.8203612289       60.0051659078       27.4151182639
H               -49.1772572326       63.2060619576       26.4758605444
H               -49.0019599974       62.8857936091       24.8247441463
H               -47.5334598490       59.6854707158       25.1823351298
H               -48.0566347540       60.8836503375       24.0710260328
N               -41.9764829023       60.4463872791       31.9668508237
C               -41.1580243598       60.8433127227       30.8445597216
C               -40.7868212409       62.3266239756       30.9965924591
O               -39.6267442118       62.7087370222       30.9100211064
C               -41.8572320680       60.5869362251       29.5131994773
C               -41.3884416553       59.2973081078       28.8537133273
C               -41.8404395752       58.0167827985       29.5560420712
C               -40.6975279871       57.0205503816       29.7404375980
N               -39.8453350353       56.7526331861       28.5281686713
H               -42.9004716059       60.0866289860       31.7761117806
H               -40.2054178624       60.3066049760       30.8818443662
H               -42.9350557732       60.5680268695       29.6588944354
H               -41.6362098982       61.4207431939       28.8259402822
H               -41.7350548185       59.2824780801       27.8116695496
H               -40.2946005101       59.3428561627       28.8116698149
H               -42.2405099307       58.2423012661       30.5365026958
H               -42.6423616546       57.5454873045       28.9893234469
H               -40.0203281949       57.3963541471       30.5135311654
H               -41.1519960496       56.0818641873       30.0309845977
H               -39.3931497356       55.8527358629       28.6056192991
H               -40.3556443829       56.7620053468       27.5638976814
H               -39.1279007768       57.4811719710       28.4239573344
N               -36.9936415161       64.3490629450       30.7410442615
C               -36.7031788315       65.1814984093       29.5729288591
C               -36.3816539290       66.5840960127       30.1169853727
O               -35.3406191622       67.1209874000       29.8091232062
C               -37.9138577123       65.1720632845       28.6129638422
C               -38.1735537152       63.9704677313       27.6912507877
C               -38.2892196074       64.2084994713       26.3127177272
C               -38.4589274242       62.6578977805       28.1371303378
C               -38.6677839146       63.1997443243       25.4006437158
C               -38.8277060632       61.6414890641       27.2289539499
C               -38.9365925572       61.9040703612       25.8475848666
O               -39.2700439936       60.9493231903       24.9038933127
H               -37.9581111468       64.3777956650       31.0817260515
H               -35.8123102215       64.8022739934       29.0953153973
H               -38.8227668786       65.2962368022       29.2324093197
H               -37.8418830332       66.0373164653       27.9725308185
H               -38.1045497910       65.1766635332       25.9288608338
H               -38.3986687243       62.4197744880       29.1656613856
H               -38.7281076817       63.4144013839       24.3633234471
H               -39.0333270355       60.6591817091       27.5919160032
H               -39.5851689468       60.1506690625       25.3467607711
N               -38.0866085503       72.0372461149       17.1399623622
C               -38.6676985384       70.8106865577       16.6937872935
C               -40.1977992323       70.8588400158       16.4931042813
O               -40.8462933515       69.8301642040       16.5535596439
C               -38.3139055435       69.6770922209       17.6436145850
C               -37.1805648872       68.8110931177       17.1358031823
S               -37.0185177062       67.2874670223       18.1102025328
C               -38.7496432560       66.7461608009       18.2578776233
H               -38.2208152504       72.2813109227       18.1014271046
H               -38.2624441182       70.6141801723       15.6767745618
H               -38.0714285227       70.0924302427       18.6176570988
H               -39.2164124068       69.0772491331       17.7273875488
H               -37.3451521410       68.5300049840       16.0893531360
H               -36.2204479431       69.3248172868       17.2112362468
H               -38.7076428905       65.7955664104       18.7763417758
H               -39.2996146307       67.4443992190       18.8769586776
H               -39.1929642880       66.6601293895       17.2753532575
H               -31.4446095036       67.3669952042       19.0327982766
H               -46.4172372690       68.8718994370       20.4370891169
H               -47.3182387092       68.7257896513       24.9299608937
H               -44.6189286959       72.3343002733       26.4513601319
H               -46.0321950468       57.7077399649       31.2613702211
H               -46.0787529139       61.0635592664       32.4075928955
H               -41.5613258460       59.7923821958       32.4250232472
H               -41.5003504397       63.0053221733       31.1705028928
H               -36.8226691509       63.4872872152       30.5458237662
H               -37.0304690879       67.0469541321       30.7209731629
H               -37.1950179774       72.0081657387       17.0207122803
H               -40.6514225072       71.7319503822       16.3144867780
