 438 
 
N                20.7049423035       39.3608465994       75.9801890570
C                19.6437280535       39.8966873395       75.1533868950
C                19.3564385328       41.3664532582       75.4567103189
O                18.7308997249       42.0859516109       74.7008965857
C                18.4234237351       39.0099803532       75.3507735780
C                17.1943298928       39.3989725873       74.5896302093
C                16.2864337750       40.2716226461       75.1777384023
C                16.8644845442       38.7370250146       73.4112237748
C                15.0107939241       40.4046154052       74.6687184772
C                15.5812600870       38.8606681588       72.9096249201
C                14.6492977687       39.6615186549       73.5571304914
H                20.4422239708       38.7260451899       76.7438226413
H                19.9636982603       39.8470753926       74.1085687424
H                18.7092585511       37.9912752858       75.0823484781
H                18.1831289385       39.0003429162       76.4189184587
H                16.5468034753       40.7742861169       76.0972256374
H                17.5757673827       38.0681845225       72.9548928400
H                14.2923165203       41.0265687503       75.1742310568
H                15.2756709655       38.3196428311       72.0274851898
H                13.6378141452       39.7151965843       73.1817028214
N                19.9312665546       41.8503726502       76.5726409495
C                20.0619480978       43.2887196647       76.7276125161
C                20.8693995614       43.8745761957       75.5336393833
O                20.5350496832       44.9205447837       75.0100855378
C                20.7169728063       43.6107690773       78.0798229314
C                19.7432007612       43.5829988927       79.2686438139
C                18.8112344251       44.8023796488       79.2507559043
C                17.9889253885       44.9289781384       80.5330483424
N                17.2343437131       46.2093808826       80.5263162913
H                20.3176589933       41.2351373858       77.2729187208
H                19.0740303552       43.7578216062       76.6604403519
H                21.5180885561       42.8912621081       78.2561139803
H                21.1665141071       44.6027518452       78.0228598019
H                19.1597585749       42.6629170821       79.2740778499
H                20.3261577522       43.6048402140       80.1890785943
H                19.4277633374       45.6970688436       79.1494459008
H                18.1248426678       44.7494531230       78.4070352092
H                17.2749459056       44.1091913222       80.6185688086
H                18.6321746551       44.9216679322       81.4134557140
H                16.5270211721       46.3037185192       81.3433866180
H                17.8668284908       47.0134647045       80.5700420283
H                16.6328236347       46.2809771694       79.6960850472
N                19.9668092978       43.7385977458       71.2777752113
C                18.8239807824       44.5326743105       70.8815056793
C                18.9243352748       45.9583002140       71.4267141880
O                18.5007578439       46.2296462790       72.5488007982
C                17.5519119308       43.9515646879       71.5349521414
C                17.2124859070       42.5093845444       71.1681253987
C                16.5364417655       42.3540105722       69.8086084779
C                16.6659112535       40.9265326535       69.2794072107
N                17.8396190922       40.8143946529       68.3467456871
H                20.2530027203       43.8518347782       72.2398855854
H                18.7712957186       44.5332361987       69.7901636650
H                17.7142893114       43.9923594072       72.6119364780
H                16.7229446880       44.6115434951       71.2818721272
H                18.1241287492       41.9170249685       71.2160222581
H                16.5488141863       42.1143599107       71.9396521479
H                15.4812197331       42.6102416460       69.9009757732
H                16.9722710903       43.0516131482       69.0934459540
H                16.8001947223       40.2445089071       70.1185349865
H                15.7565493527       40.6374781605       68.7536861367
H                17.5969193052       41.2500603294       67.4465822498
H                18.6605206626       41.3453503134       68.7333334284
H                18.0676906229       39.8253269588       68.1811281503
N                19.3735194873       46.9287052569       70.6328997569
C                19.2386150590       48.2889661130       71.1209358919
C                17.8078627433       48.3986756917       71.6858969290
O                16.8774433400       47.8887823446       71.0682084877
C                19.4348984575       49.2590419528       69.9335259004
O                20.4878344903       48.7725680961       69.1364851765
H                19.8328239271       46.7939174091       69.7444625951
H                19.9767299085       48.4883860424       71.9054490546
H                18.5131121107       49.3070854347       69.3371335360
H                19.6453112686       50.2571462649       70.3277409123
H                20.9369637041       49.4997049693       68.6935533637
N                17.5977253305       49.1647381448       72.7664697759
C                16.2521851641       49.3499348462       73.3182088655
C                15.1860050132       49.3324653136       72.2136531106
O                14.2349248055       48.5608604581       72.2697249451
C                16.2007284123       50.6562620011       74.1247340152
C                14.8006891090       51.2670087417       74.3158373921
C                13.7684326562       50.3017973684       74.8734919291
C                14.9066337710       52.4606302059       75.2678268254
H                18.3676313486       49.4983453623       73.3279381290
H                16.0028955084       48.4999235154       73.9668683360
H                16.6298556954       50.4706386852       75.1098310877
H                16.8149906083       51.4081413355       73.6249532501
H                14.4359316564       51.6301957312       73.3487154739
H                12.7908235550       50.7751594019       74.9365094704
H                13.6747417662       49.3980123416       74.2813350249
H                14.0353589407       49.9988467591       75.8864399396
H                13.9379163125       52.9430254095       75.3723317409
H                15.2175918922       52.1319004795       76.2566537139
H                15.6185733589       53.1967285947       74.9028757923
N                15.3296636016       50.2228458121       71.2246172863
C                14.3889055884       50.3932218441       70.1300940031
C                13.8829706878       49.0419404552       69.5936066903
O                12.6819331667       48.8139265375       69.4718158790
C                15.0843427374       51.1797036120       69.0224936007
H                16.0910296726       50.8856490023       71.2621145427
H                13.5012973392       50.9379726239       70.4815286871
H                14.4147264292       51.2977756867       68.1743722053
H                15.3483295525       52.1702650134       69.3847363664
H                15.9786734761       50.6591053296       68.6908808772
N                14.8480992257       48.2054236706       69.1911952089
C                14.5792350473       46.9574484568       68.4870345405
C                13.5652786188       46.1056439195       69.2724454017
O                12.6110511794       45.5193215522       68.7829333069
C                15.8757992954       46.1315651185       68.2474591665
C                17.1415403376       46.9419825964       67.8994458145
C                15.6046394283       45.0698307512       67.1805459198
C                17.0940290290       47.7761771925       66.6224134501
H                15.7666560771       48.2933997956       69.6149056366
H                14.1094072176       47.2089933501       67.5277965321
H                16.0988427293       45.6316955325       69.1969753283
H                17.3845356921       47.5850856629       68.7422272998
H                17.9559415484       46.2231341697       67.8022048748
H                16.5081826230       44.5002251154       66.9898381919
H                14.8069076371       44.4026450645       67.4958238213
H                15.2932822585       45.5400266071       66.2515043290
H                18.0265185289       48.3248404993       66.5153361902
H                16.9703757258       47.1504260633       65.7438480668
H                16.2759481070       48.4930408132       66.6470529905
N                13.8776826273       45.9746173267       70.5720643457
C                13.0978787821       45.1221137957       71.4397348336
C                11.8376402218       45.8097722500       71.9700053573
O                10.8418383565       45.1668725493       72.2979609871
C                13.9785158158       44.5667701544       72.5682309838
C                14.3522556715       45.5877803769       73.6443401070
C                15.7962571563       45.3988428625       74.1135387730
N                15.9479676658       46.0137937305       75.4170817364
C                17.0624846304       46.3802221423       76.0214955039
N                18.2465673798       46.3595396726       75.4286823278
N                16.9775329902       46.7492481589       77.3262532050
H                14.5849201618       46.5650838238       70.9903623011
H                12.7473887974       44.2816783282       70.8252914859
H                13.4437677624       43.7319094115       73.0177747825
H                14.8789634293       44.1720644092       72.1007549391
H                14.2229679543       46.6035739312       73.2748470259
H                13.6819562015       45.4808180798       74.5000049098
H                16.0149416632       44.3284687527       74.1952232349
H                16.4851324201       45.8616205922       73.4045026570
H                15.1028929458       46.0229444039       75.9941226919
H                18.3645603485       46.1047133375       74.4533055378
H                19.0828820094       46.5998408956       75.9353906894
H                16.0325455982       46.8326565415       77.6853181782
H                17.6545613245       47.4114290245       77.6750384540
N                11.9008197661       47.1426852901       72.0233284268
C                10.7679299765       47.9425883237       72.4336252004
C                 9.5897173511       47.6254107897       71.4979611994
O                 8.4378546657       47.4520438242       71.8962810751
C                11.1634247976       49.4190866162       72.4061863788
C                10.0610878219       50.3234357792       72.9537514135
C                 9.6576341015       49.8741494621       74.3497323987
O                10.2454324254       50.2397465998       75.3564115840
N                 8.6009351006       49.0381351675       74.3785567523
H                12.7561648194       47.6401338461       71.8054569007
H                10.4718171628       47.6462992449       73.4490787027
H                12.0562986600       49.5364460444       73.0153914146
H                11.3939610934       49.6998653357       71.3765295266
H                10.4326944672       51.3455389842       73.0195036144
H                 9.1924840405       50.3036806527       72.2943572088
H                 8.2371578132       48.6190690542       73.5320526503
H                 8.2776819275       48.6929208716       75.2671863412
N                 9.9347764574       47.4825765075       70.2203211666
C                 8.9195755365       47.0920571557       69.2632211662
C                 8.3110877473       45.7733461532       69.7555694186
O                 7.1045144205       45.6107136211       69.8935658539
C                 9.5383904216       46.9432701544       67.8620581344
C                 8.5239142309       46.9638901458       66.7172429909
C                 8.3104616811       48.4143418276       66.1532183380
O                 8.4355535531       49.3589023487       66.9597503547
O                 8.0412483136       48.4975992091       64.9347854352
H                10.8427904474       47.7798289162       69.8827192438
H                 8.1259741259       47.8505640196       69.2246667235
H                10.2146694816       47.7914307632       67.7242892141
H                10.1370599382       46.0297335147       67.8287027344
H                 8.8609969936       46.3425779742       65.8878993124
H                 7.5496603894       46.5965918168       67.0470152374
N                 9.2079285533       44.8091444312       69.9897531529
C                 8.8545058868       43.3964510666       70.0656933281
C                 7.8311211017       43.1495497112       71.1716790935
O                 6.8852747916       42.3868663560       71.0294530022
C                10.1245148761       42.5657196187       70.2320893992
C                 9.9214420309       41.1201274747       69.8045083448
C                11.2734058083       40.3931508198       69.4890870616
O                11.1531162759       39.2874070845       68.9054866039
O                12.3325704085       40.9297815288       69.8396687214
H                10.1808876494       45.0168918815       69.8107175501
H                 8.3575837255       43.1199723674       69.1222097074
H                10.8983929039       43.0046996662       69.5942233906
H                10.4728799825       42.6266286762       71.2634940310
H                 9.3993882649       40.5559757544       70.5793026289
H                 9.3135140719       41.0694998193       68.8976874688
N                 8.1051008062       43.8420784497       72.2827152612
C                 7.2112298897       44.0043470423       73.4058736814
C                 5.7910861154       44.3422095941       72.9497751902
O                 4.8184723138       43.6502023094       73.2241853086
C                 7.6935195119       45.1684617184       74.2708786469
C                 6.6758170265       45.4105480297       75.3800493849
C                 9.0764247257       44.8838592263       74.8327250112
H                 8.9290599731       44.4309715989       72.2709089851
H                 7.1661010026       43.0740573531       73.9876354369
H                 7.7624521834       46.0580130520       73.6384640805
H                 6.9407902436       46.3043929327       75.9398409548
H                 5.6762025239       45.5547533594       74.9823419953
H                 6.6626359393       44.5608104095       76.0585614006
H                 9.3948997384       45.7037315985       75.4713383388
H                 9.0805570229       43.9765307643       75.4330354527
H                 9.8152409885       44.7809591994       74.0468002884
N                 5.7007805769       45.5171512203       72.3135440571
C                 4.4360945796       46.0666745421       71.8652155071
C                 3.7246978977       45.0814363029       70.9321045669
O                 2.5325994853       44.8335124080       71.0670689781
C                 4.6841169814       47.4065237843       71.1922704757
H                 6.5302563631       45.9959355138       71.9914750701
H                 3.7772254238       46.1951886545       72.7352384903
H                 3.7535975676       47.8235020991       70.8182786026
H                 5.1198513442       48.0985376519       71.9076552490
H                 5.3748314626       47.2835221809       70.3612433455
N                 4.5155730372       44.5236264145       70.0103074560
C                 4.0240377478       43.6316600032       68.9850599769
C                 3.4194837720       42.3201865176       69.4986027725
O                 2.5812735565       41.7511772558       68.8063316382
H                 5.4837769799       44.8149537077       69.9581753724
H                 3.2416763523       44.1209588180       68.3945885052
H                 4.8516566871       43.3761369242       68.3219470595
N                 3.8659586227       41.8710916404       70.6851094783
C                 3.3876052288       40.6249845568       71.2674118322
C                 2.2427128210       40.8667423638       72.2444044529
O                 1.2784012474       40.1115736616       72.2773729603
C                 4.5027661985       39.7808257078       71.9192217502
C                 4.0887640755       38.3064936063       71.9776765305
C                 4.8576704495       40.2540865257       73.3188644652
C                 4.1939969129       37.5969910076       70.6361917882
H                 4.6669025314       42.3158686694       71.1144259128
H                 2.9569549246       40.0598074208       70.4312428820
H                 5.3897293305       39.8888640818       71.2845347655
H                 4.7603034972       37.8061425488       72.6760777156
H                 3.0712318511       38.2474529030       72.3659591364
H                 5.7332650100       39.7084482041       73.6648629932
H                 5.0995392089       41.3132594848       73.3312195456
H                 4.0367883971       40.0725803921       74.0087649516
H                 3.9009848360       36.5572336745       70.7405689785
H                 3.5595701476       38.0742408795       69.8937900465
H                 5.2221130008       37.6368544576       70.2823384153
N                 2.3945854986       41.9258384773       73.0441978756
C                 1.3230953338       42.3431501767       73.9178757936
C                 0.1058499680       42.7476675935       73.0869571242
O                -1.0166993408       42.7048233355       73.5651944145
C                 1.7222655717       43.5005197588       74.8413254200
C                 2.1791260291       43.0810893528       76.2459026874
C                 1.0652207412       42.4999386195       77.1279625708
N                 1.4534424956       42.6110719386       78.5288565657
C                 0.6666192149       42.4443008406       79.5877419382
N                -0.6172914999       42.1332969379       79.4772276830
N                 1.1735178411       42.6247280953       80.8153829676
H                 3.1952043822       42.5364191937       72.9461836568
H                 1.0005257529       41.4730300618       74.5058184541
H                 2.5334668838       44.0455072934       74.3558736961
H                 0.8704804764       44.1765470568       74.9325786568
H                 2.9949064096       42.3640701719       76.1540866200
H                 2.5647349882       43.9799565280       76.7298937238
H                 0.1385911560       43.0571456645       76.9657130158
H                 0.8846764671       41.4483050844       76.8872801801
H                 2.4394002397       42.7521763378       78.6991897542
H                -1.0814298370       41.9767381931       78.5866288191
H                -1.1945132676       42.1398431713       80.3000367697
H                 2.1455767205       42.8527365251       80.9669635989
H                 0.5866422831       42.5513853990       81.6275876450
N                 0.3395098001       43.1121052790       71.8162611853
C                -0.7892022326       43.4986764206       70.9858125128
C                -1.6553134983       42.2449260313       70.7336755435
O                -2.8174757043       42.1570860316       71.1000436840
C                -0.3012635996       44.1257649479       69.6813946669
H                 1.2493339173       43.4573357075       71.5312892354
H                -1.4283138401       44.2036605612       71.5357278631
H                -1.1513807682       44.3911000430       69.0599486639
H                 0.2695638640       45.0225806968       69.9074575155
H                 0.3427245082       43.4417873068       69.1342034282
N                 5.4405699715       38.7752001702       78.8262695084
C                 6.6189379747       38.2560128495       78.1384808578
C                 7.8200331790       38.2700950666       79.1089589649
O                 8.2575595373       39.3024597528       79.6124861879
C                 6.7921215382       39.2329963378       76.9776398830
C                 6.3360507647       40.5680761350       77.5572299743
C                 5.2384478232       40.1916807531       78.5765610585
H                 6.4369583561       37.2278291447       77.8227531443
H                 7.8195291885       39.2634627169       76.6317087413
H                 6.1384299153       38.9335403155       76.1578473941
H                 7.1550296569       41.0562689606       78.0815935115
H                 5.9628391299       41.2422603492       76.7910839233
H                 5.3489843697       40.7727571156       79.4940018112
H                 4.2424023268       40.3496133206       78.1537573405
N                12.5522610165       34.0761728308       74.9372773199
C                11.3517063374       34.8722198979       75.1107193023
C                10.2122200836       33.8425106825       75.2769296828
O                10.0526892788       32.9556948547       74.4513719822
C                11.1926967912       35.9407964897       73.9799147728
C                11.9038707253       35.5878151265       72.6781701037
C                11.4407015375       36.4570595323       71.4975138658
C                11.7838062168       35.7786801109       70.1471754994
N                11.0840595971       36.3896341348       68.9757712905
H                12.5645696381       33.4617270690       74.1371654255
H                11.4568109666       35.4003670101       76.0614011202
H                10.1254773760       36.0808405578       73.8085298031
H                11.5821352804       36.8867733393       74.3574795142
H                12.9803040181       35.6861045988       72.8144289030
H                11.6729709561       34.5471950332       72.4426286437
H                10.3636870670       36.5951930120       71.5752080195
H                11.8975484137       37.4441676751       71.5467624887
H                12.8576394195       35.8726799205       69.9809555674
H                11.5354872517       34.7190068632       70.1993460478
H                11.4369606502       36.0185545303       68.0841917094
H                10.0612254792       36.3029646668       69.0328604276
H                11.2591477664       37.4301823459       68.9584319827
N                11.0807400805       45.4414916158       83.2379941483
C                12.0689898614       46.3890200735       82.7715647619
C                11.4408193435       47.6585189558       82.1649221138
O                10.2545628147       47.8241821208       81.9334579479
C                12.9254302840       45.7497132933       81.6811958953
C                14.2369882850       46.4925999441       81.3353208571
O                15.1713906763       46.4077615921       82.1842581228
O                14.3536716953       47.0409418777       80.2241738557
H                10.8574451475       44.7087707565       82.5721520229
H                12.6882178974       46.7029911227       83.6266384562
H                13.2174015777       44.7537152153       82.0218374861
H                12.3259371384       45.6507454800       80.7747803328
N                12.4073136649       48.5429501217       81.8337146236
C                12.1417097471       49.8059970388       81.1723070472
C                11.2309129122       49.4608617210       79.9969239532
O                10.1567002357       50.0204985652       79.8415496540
C                13.4435582045       50.5147516051       80.7497487937
C                14.6448094306       50.2570565439       81.6771821105
C                14.4723758712       50.2870678838       83.2544448555
O                13.5127124510       50.8934446350       83.7679750365
O                15.3776161327       49.6847608677       83.8696533867
H                13.2999757957       48.4682791425       82.2924504967
H                11.5697333474       50.4588377147       81.8493827460
H                13.7138107668       50.1689559380       79.7499452985
H                13.2314784494       51.5823948723       80.7084615152
H                15.0701419902       49.2743211886       81.4619791026
H                15.4158490450       50.9991891261       81.4606081450
N                11.7391147954       48.5491462829       79.1416657510
C                10.8820529462       47.9032378933       78.1554980462
C                10.0233914175       46.8208841795       78.8229924147
O                10.2053684580       46.3966553323       79.9456020548
C                11.6891710571       47.2802928052       77.0234878159
C                12.6413641360       46.1456366867       77.5385933517
O                12.1570010015       45.2189387251       78.2110544242
O                13.8252696965       46.2588016154       77.1705557845
H                12.5272478447       48.0007170952       79.4764799463
H                10.2223198250       48.6933774026       77.7716082411
H                11.0097577851       46.8379591025       76.2932320653
H                12.2849284520       48.0485028031       76.5288923135
N                 9.0107175654       46.3430991192       78.0471450955
C                 7.9896448997       45.5639200688       78.7057342475
C                 8.3722339429       44.1307193726       79.0320666343
O                 7.5183095983       43.4017250858       79.5404260876
H                 8.7546194507       46.8510669683       77.2163144805
H                 7.7600539578       46.0219070393       79.6794151590
H                 7.0785081513       45.5557753634       78.1078541502
N                 9.5876800365       43.6804231886       78.7347968507
C                 9.9932421949       42.3861769901       79.2558044085
C                10.3350503566       42.4553195589       80.7485378162
O                10.8360197873       43.4529598033       81.2457154314
C                11.2825300127       41.9659793110       78.5523313957
C                11.1349212820       41.6343852316       77.0899936152
C                10.1582308971       40.7595521738       76.6429256356
C                12.0553355158       42.1357254187       76.1796038831
C                10.1227435960       40.3657512613       75.3166212582
C                12.0178315057       41.7418338699       74.8581090088
C                11.0648978458       40.8371698687       74.4247355980
H                10.3394472235       44.3308078522       78.5210753668
H                 9.1748200481       41.6764051781       79.1020901458
H                11.9867220046       42.7912099318       78.6625086602
H                11.7004582572       41.0986955870       79.0735251844
H                 9.4507184187       40.3588528192       77.3518683996
H                12.7933705437       42.8486579606       76.5193494916
H                 9.3708453345       39.6763803556       74.9731010885
H                12.7152667351       42.1540362977       74.1455895101
H                11.0448427578       40.5330061224       73.3883963780
N                13.1223128263       40.4352275287       82.8495443545
C                14.2592029226       39.5640814785       82.6511226320
C                14.5092812435       38.7137697992       83.9361205817
O                14.4007042186       39.1821870745       85.0749890434
C                15.4992221061       40.3907462645       82.3048866361
C                15.4778382997       41.1268363258       80.9835813948
C                14.5362937604       42.1078180885       80.6546021958
C                16.4925787754       40.8760717378       80.0644278968
C                14.6193947634       42.8477262140       79.4866515300
C                16.5700966856       41.5851415410       78.8799462436
C                15.6552254147       42.5955400534       78.5898170259
O                15.7689638145       43.3594826062       77.4731873076
H                13.2711045442       41.2774782349       83.3834068676
H                14.0039367510       38.8709315794       81.8438427636
H                15.6393977132       41.1138267398       83.1159592367
H                16.3592901918       39.7184816828       82.3007745383
H                13.7168359093       42.3299595921       81.3232780161
H                17.2360489493       40.1185025008       80.2674961600
H                13.9099863452       43.6340687048       79.2773514660
H                17.3680439600       41.3620455845       78.1854024919
H                16.4593127083       43.0007450434       76.8926879589
N                 9.2727411954       32.8966741206       70.0380698923
C                 8.5796381250       33.4874071484       71.2330353586
C                 7.5979649812       32.4641241177       71.9068443978
O                 6.4075761938       32.4999445648       71.6713300121
C                 7.7263341132       34.6966703912       70.8061664320
C                 7.6852307316       35.7217807935       71.9230052815
C                 7.2683225634       35.3720803497       73.2009948422
C                 8.1586929890       37.0152784278       71.6931136528
C                 7.3693457219       36.3031452540       74.2153702982
C                 8.2844680650       37.9407933388       72.7144811156
C                 7.8874057419       37.5681836379       73.9789255461
H                 9.8447738778       33.6031159568       69.5512602957
H                 9.8675252788       32.0969588866       70.3111282073
H                 8.5560090145       32.5605541648       69.3679522168
H                 9.3295949098       33.7888816263       71.9708519324
H                 8.1098580656       35.1752697530       69.9073145276
H                 6.7093981935       34.3507462210       70.6005135199
H                 6.8797629920       34.3893253059       73.4064260844
H                 8.4111659466       37.3291593097       70.6897800113
H                 7.0936860763       36.0547924724       75.2296961713
H                 8.6670550529       38.9314370794       72.5160771848
H                 7.9703968824       38.2547346851       74.8031997392
H                21.2758695287       38.8897313397       75.4682393373
H                21.6733008783       43.3904286765       75.1881775874
H                19.7791623613       42.8654676209       71.1662744839
H                -1.2686574401       41.4588286826       70.2514431812
H                 4.7973187275       38.1458246761       78.8369617732
H                 8.2765150527       37.4142079430       79.3520258915
H                13.2628896652       34.6205785723       74.8443832275
H                 9.5985215289       33.8986498419       76.0644717317
H                11.3811323367       45.0365934000       83.9835288070
H                10.1485233255       41.6716224186       81.3410126756
H                12.8119609374       40.7107573238       82.0509424280
H                14.7681316255       37.7511667661       83.8561713458
H                 7.9513823107       31.7732811165       72.5375837567
