 408 
 
N                27.4937849940       30.7499793579       75.9895084106
C                26.9453613796       31.9859304344       76.5581385038
C                26.6270892897       32.9367888793       75.3833652033
O                27.2831332385       33.9365751252       75.1032196988
C                27.8140216977       32.6060053463       77.6899450390
O                28.9200506927       33.3759437356       77.2920178155
H                26.8562810434       29.9714725774       75.9345797054
H                25.9962242232       31.7216228018       77.0327423107
H                27.1732244951       33.2686157063       78.2748362531
H                28.1442455721       31.7766213929       78.3278183092
H                29.4449651352       32.7993627441       76.7128879070
N                25.5981267834       32.5284648779       74.6196556140
C                25.1396875440       33.4377639772       73.5748210840
C                24.7817865640       34.7661734977       74.2723371207
O                24.2152423228       34.7810207685       75.3343538109
C                24.0026624068       32.8520960903       72.7208865577
C                24.5471150050       31.7705125076       71.7854183596
C                22.8538541349       32.3142553080       73.5718320165
H                24.9121360965       31.8878623412       74.9859441872
H                26.0048975501       33.6224976585       72.9252741056
H                23.6195358832       33.6807704553       72.1170817242
H                23.7412925190       31.3623543416       71.1836523999
H                25.3002774458       32.1804142613       71.1180797973
H                24.9950878923       30.9621253513       72.3585782236
H                21.9713412378       32.1815867552       72.9495051023
H                23.0969376042       31.3442169737       74.0003897324
H                22.6015726035       33.0120617460       74.3667486571
N                25.2445927008       35.8655800696       73.6619346616
C                25.4513295498       37.1339966688       74.3448332350
C                24.1102255419       37.6709798597       74.8788849883
O                23.0841427299       37.5943353771       74.2136340486
C                26.0748783670       38.1427907725       73.3626978170
C                27.1174520810       39.1011137219       73.9447372299
C                28.3999311096       38.4153799624       74.4490688997
N                28.4306441561       38.2799201726       75.8961828924
C                28.6747767735       37.1969257666       76.6357588615
N                28.8658876082       35.9985153223       76.0886852820
N                28.7166443962       37.3257737293       77.9693951051
H                25.7227315501       35.7576121321       72.7784138480
H                26.1214712815       36.9417024244       75.1863122258
H                26.5606314765       37.5858111334       72.5595552356
H                25.2712696092       38.7298299672       72.9147136209
H                27.3958754045       39.7766007532       73.1366622097
H                26.6884442182       39.7266762310       74.7278483229
H                28.5117618924       37.4382122278       73.9846581145
H                29.2608981788       39.0254350963       74.1643922717
H                28.3916388630       39.1717419590       76.3843489880
H                28.6803021549       35.8232497511       75.1219480248
H                28.8985601633       35.1600108468       76.6629036189
H                28.7224707693       38.2122620506       78.4047560385
H                28.9736253054       36.5169291524       78.5242616950
N                24.1539015744       38.2903490821       76.0650204824
C                22.9584566534       38.8332599059       76.6831485593
C                22.0213984770       39.4915283691       75.7105213622
O                22.3907372036       40.3357078223       74.8978767038
C                23.5261771593       39.8434757229       77.6796662886
C                24.7089526345       39.0613793117       78.2495081136
C                25.2666900199       38.3469451867       77.0127006668
H                22.4163061363       38.0374447030       77.2174628063
H                23.8785313093       40.7227085088       77.1434351941
H                22.8009814755       40.1265666806       78.4412207780
H                25.4466017718       39.7069469635       78.7163529892
H                24.3475242283       38.3433640182       78.9845746179
H                26.0766466839       38.9319859900       76.5798115493
H                25.6130689850       37.3392334646       77.2602074658
N                20.7465715036       39.1823606378       75.9089575623
C                19.6641820481       39.7494992293       75.1336731273
C                19.4734309720       41.2576311010       75.3813696804
O                18.9428328817       41.9737474663       74.5698252872
C                18.4040647847       38.9312254152       75.4326839932
C                17.1967403393       39.3419863441       74.6445800142
C                16.2531865745       40.1875156972       75.2107459597
C                16.9679817524       38.8185967384       73.3833273582
C                15.0820673662       40.4926473734       74.5520532231
C                15.7875352220       39.1177148030       72.7188807009
C                14.8413367848       39.9476549549       73.3020767613
H                20.5045890913       38.5213497184       76.6616985709
H                19.9107575102       39.6465637181       74.0727359217
H                18.6479290664       37.8869861627       75.2312501695
H                18.1918811768       39.0015713071       76.5075001390
H                16.4143397033       40.5547586020       76.2140024276
H                17.6888406798       38.1514874313       72.9428466309
H                14.3501946300       41.1292008804       75.0203551817
H                15.5848143534       38.6869033783       71.7497121054
H                13.9224759185       40.1723390195       72.7808378803
N                19.9895345407       41.7382537139       76.5320253354
C                20.0868246539       43.1711181334       76.7636236616
C                20.9641098476       43.8761936179       75.6965402817
O                20.7547322754       45.0327662762       75.3988694559
C                20.6854442688       43.4701707801       78.1514206366
C                19.6957937858       43.4135350777       79.3214252669
C                18.7814349286       44.6447619949       79.3795360880
C                17.9665615315       44.6610173865       80.6742062922
N                17.2121874247       45.9298114683       80.8313802062
H                20.3262507714       41.1094235972       77.2469347555
H                19.0938174639       43.6237283126       76.6781393479
H                21.4928505612       42.7577837271       78.3336283719
H                21.1305708633       44.4668883643       78.1220789496
H                19.1012608480       42.5025191444       79.2811327669
H                20.2787855778       43.3721171948       80.2421301233
H                19.4082161611       45.5359506394       79.3446178143
H                18.1001784155       44.6479095126       78.5308442044
H                17.2552684449       43.8350083941       80.6864473687
H                18.6216677134       44.5504088571       81.5388891002
H                16.4802014607       45.8799224035       81.6405931536
H                17.8356798683       46.7175611609       81.0213981714
H                16.6260260344       46.1374388487       80.0164759476
N                21.9862785374       43.1538021481       75.2143268431
C                22.9336032035       43.6563865172       74.2449263735
C                22.5425365437       43.3384013781       72.7967726534
O                22.8689498258       44.0827325720       71.8867819170
C                24.3353085355       43.0752637198       74.4703273682
C                25.0293854008       43.6577934225       75.7004477692
C                26.4277344579       43.0747754491       75.8185544400
O                26.6397225352       41.8738719251       75.8286831690
N                27.4161295734       43.9765797017       75.8994475782
H                22.0773853961       42.1684409427       75.4463955868
H                22.9536167803       44.7476930218       74.3311119218
H                24.2589093258       41.9904427782       74.5678419653
H                24.9365694838       43.3001574929       73.5867855297
H                25.0747950989       44.7433554459       75.6298054081
H                24.4674866431       43.3938329673       76.6002544852
H                27.2415017390       44.9652958940       75.9048266467
H                28.3696583800       43.6599909521       75.9899262472
N                21.8322347144       42.2155438120       72.6155006773
C                21.3870246674       41.7664910997       71.3077287587
C                20.3562102233       42.7033194753       70.6459444309
O                19.8141616373       42.3398234389       69.6097132486
C                20.6990757464       40.3939539346       71.4022603759
C                21.6274915003       39.1838889441       71.5498023405
C                20.8417946393       37.8605007260       71.4237046606
N                21.2882255553       37.0124961550       70.3159289624
C                21.0469920628       37.1576294828       69.0074717673
N                21.3569284573       36.1712050979       68.1669394264
N                20.4575596935       38.2512985994       68.5173566159
H                21.7667242042       41.5488199164       73.3778524833
H                22.2492610941       41.7280386689       70.6284053702
H                19.9926294578       40.4369527188       72.2343641332
H                20.1182829832       40.2988605918       70.4831429512
H                22.4022477998       39.2282965579       70.7793825646
H                22.1340614823       39.2112459862       72.5110392688
H                20.9768214970       37.2834144070       72.3273798711
H                19.7776101353       38.0669345510       71.2883325092
H                21.8077465213       36.1930728749       70.5870912510
H                21.7109017875       35.2880153664       68.4974402950
H                21.1943541349       36.2636865174       67.1798665933
H                20.4808717806       39.1074967790       69.0534087971
H                20.3431583207       38.3381882448       67.5229630222
N                20.0508721448       43.8292473834       71.2763000210
C                18.9841498650       44.7138286019       70.8577567190
C                19.2134834896       46.1224098387       71.4227282516
O                19.0052513221       46.3372887392       72.6140394761
C                17.6667698113       44.2635833644       71.5227313108
C                17.1831249637       42.8609051974       71.1861831905
C                16.4961750281       42.7685058746       69.8336437234
C                16.2293048936       41.3161516965       69.4692170546
N                17.4647319334       40.7342054059       68.8347107296
H                20.4669760471       44.0428490349       72.1712891187
H                18.9372754947       44.7133172071       69.7675533170
H                17.8608969814       44.3022753677       72.5946763774
H                16.9047255970       44.9997295204       71.2652675964
H                18.0241129803       42.1744476407       71.2580457592
H                16.4783261778       42.5525115963       71.9624014891
H                15.5510683290       43.3116998457       69.8596882080
H                17.1100813967       43.2367843914       69.0625277566
H                15.9741159321       40.7634484186       70.3690663156
H                15.3911982879       41.2335383038       68.7755035657
H                17.4086728548       40.8228057472       67.8171043806
H                18.3039581419       41.2710366518       69.1486755604
H                17.5513983682       39.7390851658       69.0799401014
N                19.5228034919       47.1351221147       70.5990640110
C                19.3950717773       48.4674127129       71.1652526923
C                17.9561532236       48.5448855180       71.7037201076
O                17.0560729333       47.9540394964       71.1096011643
C                19.6400013618       49.5559521719       70.1125770394
O                20.9671784039       49.4412967408       69.6683366502
H                19.7424862155       47.0276029156       69.6245303089
H                20.1155375314       48.5874580522       71.9834111923
H                18.9357900051       49.4310397135       69.2801931982
H                19.4553237170       50.5313753345       70.5842027366
H                21.2003848325       50.2024602703       69.1278904271
N                15.1248450311       48.3754737755       69.1427302301
C                14.9229964557       47.1634473606       68.3617721041
C                13.8847136412       46.2584443357       69.0412829865
O                12.9655770461       45.7256963832       68.4475850836
C                16.2512852676       46.4024471641       68.1473098929
C                17.4117604525       47.2910124537       67.6679543497
C                16.0211666945       45.2403962627       67.1811260552
C                17.2415377028       47.9133674465       66.2868375138
H                16.0083254351       48.4619021736       69.6332227499
H                14.4890113951       47.4523346945       67.3960224907
H                16.5437361292       46.0097019906       69.1275108443
H                17.5677090247       48.0870897815       68.3933885680
H                18.3082461221       46.6703337088       67.6536659697
H                16.9592744173       44.7248069067       66.9975172630
H                15.2895966509       44.5453158173       67.5835841963
H                15.6361371295       45.6050952970       66.2344946114
H                18.0871840070       48.5598054153       66.0668556438
H                17.1943213668       47.1523047540       65.5133675507
H                16.3359414239       48.5139627008       66.2318889949
N                14.1368227643       46.0191616941       70.3486627942
C                13.2539035921       45.1632780943       71.1126576314
C                11.9748573070       45.8539970577       71.5803325775
O                10.9421674351       45.2205562422       71.7755609550
C                13.9759171781       44.5272347003       72.3135188390
C                14.2255568928       45.4624596611       73.5102197001
C                15.6800424330       45.3839106187       73.9768665945
N                15.8239680344       45.9771101997       75.2939299159
C                16.9847403592       46.2004403905       75.8989088488
N                18.1483535495       46.1203777373       75.2763785645
N                16.9566189735       46.4571470633       77.2269244304
H                14.7803590950       46.6137851482       70.8551639778
H                12.9346235947       44.3629600141       70.4322151407
H                13.3629563333       43.6833440583       72.6287406294
H                14.9220840278       44.1381634845       71.9506253062
H                13.9989256573       46.4960517261       73.2517469961
H                13.5674512457       45.1932566400       74.3377285370
H                15.9972553450       44.3369988464       74.0222348564
H                16.3090745990       45.9323620312       73.2730974569
H                14.9943916985       46.0119895131       75.8904764898
H                18.2428360754       46.0303029170       74.2693851093
H                19.0200641783       46.2162283853       75.7728752599
H                16.0387754385       46.5409818451       77.6448840433
H                17.6969319166       47.0173515008       77.6198484834
N                 9.1811662111       44.7638482579       69.6534021442
C                 8.7868993070       43.3775183298       69.8674140740
C                 7.8671713112       43.2470550483       71.0804673781
O                 6.9152386209       42.4776532888       71.1006578112
C                10.0494446624       42.5211609932       70.0231598187
C                 9.7775966821       41.0367483835       69.8394334702
C                11.0739156445       40.2233858196       69.4997633636
O                10.8692987702       39.0359597329       69.1545489915
O                12.1764220764       40.7760737263       69.5917130603
H                10.1708594979       44.9472724883       69.5894335174
H                 8.2116685757       43.0446975839       68.9898181413
H                10.7631434954       42.8336138645       69.2528466257
H                10.4984928926       42.7260890724       70.9930282764
H                 9.3249323445       40.6122364068       70.7371207111
H                 9.0759931372       40.8802003464       69.0167038651
N                11.8959932089       37.1646486747       79.6007938135
C                13.1937885722       36.8194510884       79.0445866295
C                13.9491549798       36.0436284654       80.1327814672
O                14.1409767785       36.5456357750       81.2355748989
C                13.9729357522       38.0789552351       78.6498331464
C                15.4230259879       37.7373482111       78.3458861826
C                13.3217275763       38.7382123141       77.4488465108
H                11.9076630902       37.6902236487       80.4570201269
H                13.0311866351       36.1864956153       78.1710730748
H                13.9445710942       38.7776144983       79.4982993196
H                15.9533212596       38.6215003463       78.0006469725
H                15.9320071062       37.3768713172       79.2379578924
H                15.4815500576       36.9728686056       77.5814675115
H                13.7474252594       39.7237360638       77.2725035366
H                13.4801756750       38.1346440025       76.5576436801
H                12.2505233964       38.8587148856       77.5983339477
N                17.5166162985       34.1720008864       80.8154451693
C                18.8953491059       34.1085195500       80.3756366106
C                19.7069513057       33.3408614041       81.4170027779
O                19.5743759872       33.5512983970       82.6134256359
C                19.5430758829       35.5018950811       80.2404444487
C                18.6376138715       36.5402094417       79.5865052318
C                19.4763698557       37.7187446953       78.9949022068
O                20.2073214083       37.4172676669       78.0210335211
O                19.3522617329       38.8483248115       79.4967639188
H                17.3340106455       34.6065435075       81.7112995410
H                18.8862542672       33.6065664528       79.4050228807
H                19.8318456969       35.8658790243       81.2304544475
H                20.4523555604       35.4038829496       79.6422976571
H                18.1023249970       36.0879517732       78.7451079457
H                17.9152135179       36.9364315215       80.2986517617
N                25.5971859230       34.6065862990       83.1079010188
C                26.7188962462       34.5415568047       82.1799591405
C                27.8038139573       33.5701218732       82.6543874230
O                28.3813708718       32.8425540853       81.8546288524
C                27.2110358599       35.9949190802       82.0594037015
C                26.4843082913       36.7477275748       83.1761952976
C                25.1767739829       35.9825809584       83.3174934403
H                26.3780323803       34.1528859445       81.2159267628
H                28.2949495785       36.0584308457       82.1510451233
H                26.9344274906       36.3947112834       81.0861543137
H                27.0445727150       36.6903802252       84.1085831435
H                26.3250199646       37.7923538160       82.9259451010
H                24.7293352934       36.1269264358       84.2925074469
H                24.4591954422       36.2584968132       82.5360012419
N                14.5132088902       32.0362489044       74.5099562474
C                14.8499279875       33.0698104973       75.4417959567
C                13.6544165433       33.9177728809       75.8742496212
O                13.6674225178       34.5434016149       76.9351041672
C                15.9604885226       33.9475452911       74.8345256962
O                16.9879088318       33.0501556392       74.4856467482
C                16.4382171512       35.0323968368       75.7788233243
H                14.5256966520       32.3287941445       73.5318952300
H                15.2597987137       32.5824247681       76.3373344033
H                15.5671701762       34.4291688348       73.9179823577
H                17.8287772287       33.5150094776       74.4664064712
H                17.2828578666       35.5669524662       75.3603294912
H                15.6405125798       35.7503245811       75.9607632867
H                16.7290653391       34.5963243436       76.7364480251
N                12.6437752930       33.9780921285       74.9990285032
C                11.4456369415       34.7656231122       75.2149895738
C                10.2683769017       33.7977031203       75.3527573646
O                10.1389762778       32.9008231425       74.5302523657
C                11.2378357479       35.7683007049       74.0458376787
C                11.6669727014       35.2003619810       72.6989516794
C                11.2342887353       36.1111524996       71.5464216310
C                11.6146388948       35.5297664826       70.1728405817
N                10.9850582191       36.3108969771       69.0743372517
H                12.5957932893       33.2878492530       74.2667490674
H                11.5585242682       35.3232876377       76.1503465551
H                10.1848186893       36.0533997648       74.0288141842
H                11.8107700105       36.6706306011       74.2633258518
H                12.7529893819       35.0995023190       72.6848697959
H                11.2215578508       34.2096121191       72.5870775522
H                10.1556006225       36.2578899500       71.6007069572
H                11.6951200635       37.0884132399       71.6673268421
H                12.6987146440       35.5885722505       70.0553311303
H                11.3093188782       34.4903672978       70.0995286571
H                11.3459099918       36.0627311427       68.1540349179
H                 9.9587694989       36.2472405492       69.0966851717
H                11.1593337432       37.3575083421       69.1979615868
N                10.8271644224       45.5523610576       83.2767239904
C                11.9283361269       46.3975676825       82.8641621492
C                11.4154220975       47.7180150247       82.2544185781
O                10.2407308106       48.0358357656       82.2161517144
C                12.7883009960       45.6269410414       81.8619728048
C                14.2173441004       46.1529009854       81.6061998024
O                15.1097404764       45.8046657967       82.4259672363
O                14.4540830594       46.8156934815       80.5780859742
H                10.5266774906       44.8867711075       82.5754006368
H                12.5121700434       46.6653716996       83.7604483211
H                12.8932708553       44.6086072734       82.2454290538
H                12.2532658249       45.5872238455       80.9106748268
N                12.4210478752       48.4709625016       81.7671508286
C                12.2287470531       49.7518556762       81.1121355332
C                11.3675061912       49.4943334021       79.8753052424
O                10.3842317288       50.1301952677       79.6062161660
C                13.5569913871       50.4126198379       80.6862258939
C                14.7611070767       50.0768590707       81.5674189778
C                14.5759768665       50.2224266799       83.1254230457
O                13.6386865101       50.9203535312       83.5658240485
O                15.4327196331       49.6175535133       83.8019098788
H                13.3688595613       48.2070843019       81.9611461886
H                11.6773721767       50.4147548647       81.7907973767
H                13.7869757983       50.0988345274       79.6676291731
H                13.3904618707       51.4883804724       80.6914781448
H                15.0912807040       49.0519448246       81.3902217532
H                15.5865569876       50.7379559793       81.3028837437
N                 9.6470144277       43.6931660363       78.7498999180
C                10.0367804714       42.3818342605       79.2268038028
C                10.2746817117       42.4160258411       80.7433902707
O                10.6068921618       43.4235747265       81.3372508800
C                11.3404238714       41.9458103044       78.5598693475
C                11.1918536243       41.6217729538       77.0947097918
C                10.2855769492       40.6624448986       76.6650939654
C                12.0071012490       42.2384137652       76.1523033225
C                10.1931831939       40.3293068114       75.3190629446
C                11.9080310404       41.9127352121       74.8126559726
C                11.0032346048       40.9521199600       74.3891452523
H                10.4052302385       44.3415716149       78.5550346416
H                 9.2196980881       41.6824536585       79.0180332787
H                12.0589086725       42.7549893104       78.6802328718
H                11.7236885808       41.0642934193       79.0838123506
H                 9.6709949203       40.1587284267       77.3945053800
H                12.7063005550       42.9953786263       76.4796315954
H                 9.4971696032       39.5752869703       74.9960099914
H                12.5283209235       42.4183260588       74.0879490743
H                10.9284196921       40.7072688640       73.3414420835
N                13.0214445215       40.4000675975       82.8755619753
C                14.2178359989       39.6024701220       82.6893090239
C                14.5252635974       38.7950896923       83.9724609841
O                14.4427838256       39.2998138632       85.0847810643
C                15.4342728945       40.4943556917       82.3991683494
C                15.4797686684       41.0972990242       81.0175681969
C                14.5954613711       42.0974112870       80.6080216439
C                16.4945875097       40.7182516650       80.1470893804
C                14.7482521894       42.7390864312       79.3976300806
C                16.6514587941       41.3415779016       78.9251777296
C                15.7966838335       42.3739638733       78.5473486693
O                15.9753538799       43.0582528577       77.3838520750
H                13.1259632206       41.2527516994       83.4058622936
H                14.0297114584       38.9052781199       81.8712020116
H                15.4445748821       41.2932321137       83.1471109232
H                16.3327962069       39.8899584397       82.5380794940
H                13.7973129095       42.4199493353       81.2598099835
H                17.1981394581       39.9478501789       80.4210274168
H                14.0982589530       43.5460739234       79.1091890524
H                17.4603442169       41.0323518532       78.2787906451
H                16.7209009663       42.6880011510       76.8905881408
H                27.7740053651       30.9047547803       75.1483656688
H                17.7592712261       49.0724109070       72.5301306854
H                15.0760020508       49.0930674938       68.6017370521
H                11.9676161472       46.8421439580       71.7336729472
H                 8.8267657913       45.0612280490       68.8814140599
H                 8.0332157008       43.8017505117       71.8957846192
H                11.4385380752       37.6644076206       79.0083617105
H                14.2889262645       35.1220108061       79.9452278367
H                17.0323951987       34.6411504883       80.2192668591
H                20.3656040601       32.6471433011       81.1255722671
H                24.8429937428       34.3559137446       82.6855771788
H                28.0461350465       33.5257574399       83.6235686686
H                15.1001321810       31.3584436115       74.5880653737
H                 9.6195164902       33.9036411690       76.1062540774
H                11.0680192819       45.0782362487       84.0028056678
H                11.6127426723       48.7632085171       79.2386613303
H                 9.1878309647       43.6087706475       77.9804663824
H                10.1571147591       41.5848391946       81.2868116268
H                12.6979073428       40.6482457804       82.0732333122
H                14.7993847154       37.8357014120       83.9058896669
