 355 
 
N                24.0324754896       37.6774804839       15.3474980407
C                23.4383210420       36.8128636978       14.3327066516
C                22.5893055194       35.7285311951       14.9760255158
O                22.8228273045       35.2497460805       16.0745378283
C                24.5728776187       36.1203966562       13.5587542612
C                25.3969368905       37.1382489893       12.7873544717
C                26.6736093463       36.5045116632       12.2457491295
O                27.1185772518       35.4403464595       12.6902520111
N                27.2200658383       37.1585589598       11.2398103653
H                24.6127473354       37.2691022292       16.0830628944
H                22.8384486285       37.4396391982       13.6714704764
H                25.2077705346       35.5946404186       14.2696036114
H                24.1576709278       35.3858286230       12.8685237215
H                24.8343361324       37.5654314612       11.9581120075
H                25.7002133389       37.9597248153       13.4410970921
H                26.8676758848       38.0625938870       10.9387763252
H                28.0982789917       36.8487960128       10.8483004546
N                21.5649378662       35.2721669645       14.2313040323
C                20.7984302673       34.1142789409       14.6720622890
C                20.6760626044       33.1015585233       13.5417959169
O                20.7098684508       33.4682151860       12.3647292980
C                19.4229219192       34.5780599023       15.2069671967
O                18.8800034582       33.4965864567       15.9572035815
C                18.5544540718       35.0313448375       14.0638880830
H                21.3821028449       35.6529021461       13.3075911344
H                21.3371966233       33.6634596285       15.5110075571
H                19.6217059904       35.4288423752       15.8791458447
H                17.9256796584       33.6503834194       16.1461235814
H                17.6299890866       35.4629676788       14.4465361650
H                19.0803018185       35.7800754164       13.4794214130
H                18.3025417954       34.1869143973       13.4272947455
N                20.4177409550       31.8344781354       13.9013147140
C                20.0795718531       30.7886315263       12.9232822362
C                18.5527151684       30.6113589867       12.8837807443
O                17.8964705233       30.3483318558       13.8952970425
C                20.6984897575       29.4914741733       13.4317963186
C                20.3972462871       28.3064980092       12.5425853252
C                20.8705027751       28.3099803335       11.2492766141
C                19.7076521812       27.1937920631       13.0454446856
C                20.5095814046       27.2760716171       10.3976624313
C                19.3662641059       26.1449442427       12.1900961729
C                19.7447731641       26.2139783315       10.8660798864
H                20.2344926637       31.6002703086       14.8700379614
H                20.4540145216       31.0898913145       11.9452695853
H                21.7819579876       29.6245683408       13.5020024595
H                20.3136614003       29.2991050246       14.4332317405
H                21.4547911677       29.1398176868       10.8831333006
H                19.4320295366       27.1813085056       14.0883041486
H                20.8396358723       27.2794465152        9.3718849615
H                18.8245073276       25.2892288320       12.5634383022
H                19.4841680218       25.4137861919       10.1886633752
N                21.1651461241       32.4117211558        8.1538305335
C                21.7172594179       33.2161110350        9.2287686981
C                21.2692676088       34.6530690768        8.9517267533
O                21.4821844975       35.1430820709        7.8373187015
C                23.2587975404       33.1826698394        9.2568938048
C                23.7299106519       34.0319198084       10.4597719407
C                23.7703020960       31.7387744631        9.4524070546
H                21.3520223990       32.6997615902        7.1998231923
H                21.3084607146       32.8506944763       10.1724466739
H                23.6398033439       33.5920039463        8.3208394937
H                24.8114217968       33.9907237915       10.5539234832
H                23.4335525647       35.0706932510       10.3406418699
H                23.2794733692       33.6460923370       11.3702126531
H                24.8554516930       31.7308731405        9.4878356099
H                23.3761413653       31.3407439849       10.3825057483
H                23.4430420973       31.0900178979        8.6435877857
N                21.8848152600       33.9512381731       22.3329511509
C                23.0592734169       34.2922862020       21.5163302950
C                24.0567238766       33.1402180751       21.4553571259
O                24.6272072505       32.8320377825       20.3998652094
C                23.6659016763       35.5882132745       22.0931811447
C                25.1189334596       35.7677054942       21.6777039914
C                22.7961208044       36.7850468153       21.6899073131
H                21.6451593896       34.5104059971       23.1526155474
H                22.7517347812       34.4554657288       20.4771175018
H                23.6375799751       35.4763294170       23.1832679147
H                25.4745533955       36.7455621974       21.9873956981
H                25.7389524633       35.0034375233       22.1403657996
H                25.1875257786       35.6800341021       20.5963256695
H                23.1817643030       37.6968686772       22.1335454552
H                22.8137191695       36.9053201323       20.6088712497
H                21.7667222942       36.6374128720       21.9947733102
N                24.3255606430       32.4939945895       22.6261441883
C                25.2881822839       31.4210984569       22.6089639008
C                24.8017412079       30.2099081524       21.7932434084
O                25.5924373948       29.5943834512       21.0617184841
C                25.7218518043       30.9918548645       24.0139520226
C                26.4570284176       32.1444862231       24.7033038282
C                27.7807291423       32.5304665274       24.0206729347
O                28.5172134929       31.6135756593       23.6093581038
O                28.0117261578       33.7459797685       23.7864772272
H                23.8783402826       32.7743700673       23.4976501003
H                26.1844731031       31.7825909370       22.0782676830
H                24.8553910884       30.6743915297       24.5994247548
H                26.3957441403       30.1392438300       23.9280502148
H                25.8176872884       33.0269197215       24.7489356386
H                26.6979624664       31.8500752896       25.7312264736
N                22.8184916254       30.4071339632       19.2480016552
C                22.8970391733       30.7731621670       17.8401258533
C                24.3035841710       30.5471763306       17.3389095433
O                24.5322702479       30.0393939412       16.2635621632
C                22.4969640381       32.2452470032       17.7185275824
H                22.5135371171       31.0992748832       19.9224745142
H                22.2278555790       30.1359474485       17.2488735496
H                22.6548545249       32.5863072736       16.6998661402
H                21.4580780020       32.3785625798       17.9911970665
H                23.1202657709       32.8403689735       18.3820416988
N                25.3391296371       30.8995139416       18.1317259426
C                26.6658369031       30.7117740462       17.6046462878
C                26.9700598631       29.2169111577       17.3409693034
O                27.6335684056       28.8595282611       16.3478050959
C                27.7172079235       31.2636173529       18.5956394265
C                27.5845039398       32.7749244775       18.7274460730
C                28.6258571396       33.2529050503       19.7645289505
C                28.4907729664       34.7278088173       20.0584344814
N                29.1705493039       35.0400743318       21.3448139465
H                25.1784589438       31.4243877213       18.9830796960
H                26.7606596001       31.2220657472       16.6376403940
H                27.5710894021       30.7792880986       19.5599655890
H                28.7076918660       31.0039707832       18.2216542491
H                27.7736039142       33.2513355140       17.7673000582
H                26.5859392119       33.0496959054       19.0634023890
H                28.4613146784       32.6920254241       20.6874278207
H                29.6231848865       33.0121134863       19.3988810569
H                28.9391432361       35.3277218887       19.2680103623
H                27.4378193032       34.9936987400       20.1532210603
H                29.0569690395       36.0620744787       21.5050717213
H                28.7450114946       34.5269384223       22.1556066522
H                30.1614492714       34.7870254654       21.3042292373
N                26.5202815316       28.3625833665       18.2911361801
C                26.7026136639       26.9347218806       18.1162232078
C                25.9331771992       26.4513740951       16.9078961262
O                26.4385031257       25.6301882228       16.1494815844
C                26.2572364431       26.0904478542       19.3160463982
C                27.1313481157       26.4315464280       20.5273631528
C                26.5899848545       25.8609937243       21.8375713183
C                27.5067706835       26.3293536417       22.9799053044
N                26.9136806060       26.0757994024       24.3179293961
H                26.0006382187       28.7027270280       19.0904611532
H                27.7660049537       26.7473206462       17.9179518333
H                25.2068979394       26.3031699069       19.5276538385
H                26.3489027177       25.0364585595       19.0569039205
H                28.1324236195       26.0414122972       20.3505172433
H                27.2014253495       27.5118170138       20.6246566142
H                25.5755739856       26.2284461718       22.0080750943
H                26.5555187726       24.7746819798       21.7830481607
H                28.4579360891       25.8020874018       22.9201142834
H                27.6944122799       27.3987732467       22.8685789746
H                27.5468704157       26.3900889851       25.0643560636
H                26.0114616673       26.5682705338       24.4386704925
H                26.7184186557       25.0720652666       24.4364145545
N                24.7122022606       26.9444468762       16.7382508705
C                23.9495069311       26.4405298545       15.5789566447
C                24.5090689748       26.9031944239       14.2350469665
O                24.5636771699       26.1737427033       13.2266269658
C                22.4748616807       26.9215094749       15.6929636849
C                21.8086894675       26.1971539829       16.8561041651
C                20.4200078871       26.6732372826       17.2044572778
O                19.8845094941       27.5631715416       16.5219193072
O                19.8587480631       26.1292436572       18.1873457934
H                24.2512387231       27.5449572420       17.4094042662
H                23.9795025273       25.3441538002       15.5895003092
H                22.4656676776       28.0002104540       15.8563270396
H                21.9473157388       26.7112785800       14.7605754426
H                21.7300000581       25.1257328576       16.6444688154
H                22.4069050862       26.2986426106       17.7643133274
N                24.9699394564       28.1509248733       14.1984250134
C                25.5846448596       28.6770743900       12.9975605543
C                26.8257960930       27.8258567108       12.6029488812
O                27.0703303504       27.5808391082       11.4346164318
C                25.9329970283       30.1723469901       13.1565172294
C                24.6437881424       31.0046093523       13.2544811904
C                26.8382812905       30.6702260553       12.0245769119
C                24.9249966593       32.4372047436       13.7690420232
H                24.8998653868       28.7648226854       15.0048940437
H                24.8786892983       28.5550431909       12.1623025066
H                26.4768122993       30.2670421357       14.1027575646
H                24.1674073366       31.0505175228       12.2766442836
H                23.9571770569       30.5236734309       13.9510330227
H                27.0544180507       31.7247061070       12.1506730836
H                27.7827086596       30.1343839409       12.0231841126
H                26.3586813480       30.5093244569       11.0622605600
H                23.9854561865       32.9773912024       13.8663724013
H                25.3904299439       32.3800431530       14.7480444885
H                25.5758668717       32.9785857143       13.0920585145
N                27.6194437747       27.4816067283       13.5956758935
C                28.8293177389       26.7269095789       13.3464767420
C                28.4982681289       25.2955896765       12.8895227834
O                29.1894144851       24.6843733119       12.0925430417
C                29.6177583781       26.6464872633       14.6476399345
H                27.4279372898       27.7537269053       14.5524625617
H                29.3985837808       27.2009149660       12.5390039234
H                30.5196340779       26.0628015209       14.4957549269
H                29.8824704811       27.6451461580       14.9817519137
H                29.0105224172       26.1607198226       15.4061590847
N                27.3810279192       24.7778264585       13.3688187892
C                26.9395756081       23.4318648145       13.0365639566
C                26.3927331169       23.3748005257       11.6361187979
O                26.7086998387       22.4339490546       10.9018304170
C                25.8370687272       22.9958553834       14.0019341974
C                25.2503025976       21.5943965718       13.7281791501
C                26.3202668634       20.5388899732       13.8489233103
C                24.1036767509       21.3039720988       14.6998486377
H                26.8742223848       25.2422721047       14.1121049310
H                27.8060182767       22.7633929350       13.0872741631
H                26.2454034703       23.0100589460       15.0149277602
H                25.0356519570       23.7356467840       13.9449826903
H                24.8490403548       21.5892985442       12.7069216437
H                25.8737766665       19.5470018856       13.8113614996
H                27.0371236282       20.6208691334       13.0349173608
H                26.8570200447       20.6405884559       14.7891273592
H                23.6549549986       20.3419813503       14.4670455892
H                24.4757742736       21.2792807880       15.7218557204
H                23.3368054918       22.0721798788       14.6314952878
N                25.5717321599       24.3551007315       11.2357949252
C                24.8817769142       24.2345229227        9.9320567570
C                25.6085868614       24.8644529040        8.7510820697
O                25.2858636002       24.5287274770        7.6138942950
C                23.5134133409       24.9417004520       10.0429820721
C                22.5399226064       24.1506493550       10.8788794990
C                22.4467361119       24.1234770522       12.2314046957
C                21.4344613145       23.3624878909       10.3797543691
N                21.3914924115       23.3432515675       12.6266331302
C                20.7531885281       22.8829687178       11.5121542517
C                20.9113744739       23.0930607158        9.1243315026
C                19.5776974434       22.1305957579       11.4165525389
C                19.7274697777       22.3842967491        9.0122500626
C                19.0879997619       21.8974136685       10.1537452682
H                25.2717762719       25.0842268344       11.8682215411
H                24.7595255363       23.1665387154        9.7241971550
H                23.6696092297       25.9224927602       10.4943013094
H                23.1001545730       25.0746642137        9.0444982570
H                23.0452913999       24.6265112121       12.9621240021
H                21.0642045563       23.2186245439       13.5835529584
H                21.3946370677       23.4857648818        8.2448966989
H                19.0760245719       21.7826503057       12.3060890129
H                19.2918432181       22.2059763591        8.0425278425
H                18.1758217124       21.3311691691       10.0432386612
N                26.5500027881       25.7872705732        8.9963714712
C                27.2318531249       26.4015629452        7.8763297097
C                28.7323171824       26.2439558258        7.9797127759
O                29.3278734326       26.2951881769        9.0588483278
C                26.9159011102       27.9239220583        7.9709092067
C                25.5156615130       28.2238632818        7.5141405627
C                25.3128827777       28.4147440199        6.1370856313
C                24.4580293788       28.3626203707        8.3850547612
C                24.0349551476       28.6385423639        5.6490099389
C                23.1751969892       28.6042873076        7.8904595059
C                22.9683224662       28.6918722115        6.5270949996
H                26.8478854320       26.0645934929        9.9206947308
H                26.8425284267       25.9767638081        6.9529578623
H                27.0670147497       28.2164643808        9.0110427560
H                27.6338386990       28.4712091876        7.3570653023
H                26.1511640664       28.3332131614        5.4666430155
H                24.6263683038       28.2739436259        9.4477618099
H                23.8770052783       28.7786282750        4.5904569108
H                22.3447552960       28.7090741086        8.5712087662
H                21.9713582327       28.8556495835        6.1474414705
N                29.2010108914       32.3511263875        5.2247678628
C                28.6783948308       33.6109550266        5.6959737333
C                29.2269161471       34.7050785481        4.7602433916
O                30.4197454633       34.7864452832        4.4844308781
C                29.0640629444       33.8629096563        7.1378792157
C                27.9932548437       33.2352001703        8.0669956055
C                28.0792833464       31.6963210809        8.1636757243
C                28.0131091554       33.8542760095        9.4228821092
H                30.1133859690       32.0667915610        5.5520656214
H                27.5936738950       33.5889201382        5.5583158463
H                30.0542319374       33.4551355552        7.3395588051
H                29.0900561386       34.9365517430        7.3212044373
H                27.0205874929       33.4709308338        7.6142536347
H                27.2598395293       31.3198202962        8.7673998434
H                28.0248024489       31.2391984426        7.1803338830
H                29.0146949587       31.4017396029        8.6319797816
H                27.2397391421       33.4292430536       10.0580630699
H                28.9687034005       33.6836521138        9.9136010066
H                27.8492947208       34.9275234315        9.3627155580
O                24.4116580733       35.2067088383       18.4291982720
H                25.1036597579       35.7630724809       18.0336628136
H                23.7471600237       35.1139641814       17.7418679645
O                29.6992960432       30.4373123545       15.4455594219
H                29.5117347445       31.3920148851       15.3494340429
H                28.8712634442       29.9800463649       15.6460631530
O                29.4809222076       33.8230788619       12.6316259639
H                30.0526426539       34.5655289853       12.3753873779
H                28.5928058030       34.1945194434       12.6894674659
O                28.2319461183       29.3453039615       21.9449871153
H                28.4669994944       30.0937924989       22.5150682189
H                27.3759363111       29.5680462828       21.5527438277
O                28.2553040935       38.1071429485       15.1349370413
H                29.1764088115       38.3699863294       14.9869320513
H                27.6968987244       38.7203716408       14.6519142977
O                28.4554390871       37.7781952208       21.0476243490
H                29.1685508039       38.4037678841       20.9139963568
H                27.7629145699       38.0020171502       20.3980270600
O                30.3636907882       28.6869098649       10.3385387835
H                30.6646893805       29.0319071085       11.1876528085
H                29.5226808786       29.1161137557       10.1678946051
O                27.4278996410       35.0181767313       15.5680615447
H                27.2979633834       35.1552975261       14.6175560851
H                26.5675033231       34.8493092826       15.9600726976
O                26.0449184516       36.9068024460       17.2877871448
H                26.8175579299       36.8255102441       16.7093820089
H                26.3058122795       37.5129320574       18.0143697625
O                30.9222999587       35.9305704058       11.6920194527
H                31.5921387759       35.6716153866       11.0418303170
H                30.2856929518       36.4778245679       11.2253630429
O                30.9970743801       29.9218742425       13.1821167535
H                31.8729888133       29.6730119029       13.4833709917
H                30.4746894849       30.1155128516       13.9959715073
O                29.5132759372       33.1814837614       15.1848998829
H                30.3500398808       33.5761456103       15.4557588182
H                28.8258788050       33.8430738004       15.3570411063
O                26.6870673052       38.7016525095       19.1542856151
H                27.1542097849       39.4577743309       18.7822719659
H                25.9869043696       39.0884295273       19.7263790680
O                31.7232227140       36.7868523539       13.8442823383
H                31.1914921954       36.0062973973       14.0131055799
H                32.4869675017       36.7159587207       14.4621752984
O                32.1165009428       34.2473754622       16.0362683062
H                32.7942018058       33.5832198391       16.2242760757
H                32.5959393722       35.0850610615       15.9906095044
O                30.8718850535       38.9309083837       15.1575206904
H                31.1435013511       38.2364244779       14.5102419202
H                31.3411502870       38.6746442379       15.9570592124
O                30.2832910235       31.5838194676       11.1903199657
H                30.6647161005       31.0052698667       11.8669287954
H                29.9295402626       32.3404412893       11.6883402164
O                27.5595521682       38.0978612627       23.4999113602
H                27.9354446085       37.8369665862       22.6401606467
H                27.4849374152       37.2933156945       24.0372177267
N                34.7659936186       34.9190128942       11.6614780884
C                34.6688540898       33.9372133532       12.7160850277
C                36.0067914478       33.2729938562       13.0197499532
O                36.3033730662       32.9659630155       14.1847013632
C                33.6559723100       32.8187123450       12.3150953405
O                34.0087599761       32.1251563343       11.1505126567
H                34.0913412711       34.9043961833       10.8946222068
H                34.3041906896       34.4069457007       13.6389370153
H                33.6137775219       32.1091876469       13.1485498478
H                32.6760690034       33.2911867318       12.2122562551
H                33.2997143979       32.2407263570       10.4707795037
H                24.5712822904       38.2796130332       14.9511098162
H                18.0602315127       30.7089699113       12.0189501504
H                21.4854249407       31.5726185015        8.2115212190
H                20.8116734826       35.1808966286        9.6672724829
H                21.1435733003       33.9896525090       21.8239475204
H                23.8471110656       29.9180554891       21.8524322113
H                22.2394536972       29.7256377929       19.3493823613
H                29.2771315764       26.0922155237        7.1549993973
H                28.6462507320       31.6856933573        5.4685711601
H                28.6048858959       35.3765873026        4.3575594470
H                34.6845209293       35.7443758242       12.0109608988
H                36.6502664454       33.0827406607       12.2783029564
