 474 
 
N                26.8450501431       10.8485381397       18.2782744844
C                25.6491160695       10.3411794769       18.9196904968
C                25.9414253258        9.0364671853       19.6546149905
O                25.5550313197        8.8606491939       20.8060098494
C                24.5364678272       10.1620620676       17.8895276833
C                23.2173857675        9.6465574376       18.4817825848
C                22.7154811484       10.5325416390       19.6200004456
C                22.1692823403        9.5733332571       17.3731345882
H                26.8350481912       10.9272427925       17.2679388779
H                25.3405951323       11.0624180411       19.6876209953
H                24.3678349013       11.1282810016       17.4105913561
H                24.8874054806        9.4656289424       17.1240174209
H                23.3815924535        8.6356492208       18.8722196445
H                21.6999269962       10.2486765529       19.8848964665
H                23.3342995632       10.4164143009       20.5048285689
H                22.7213349780       11.5746763849       19.3156738825
H                21.2210643968        9.2207490988       17.7687413577
H                22.0171985789       10.5541273637       16.9299953751
H                22.4924473137        8.8880495424       16.5936762823
N                26.6382746126        8.1232049364       18.9799045689
C                27.0047003788        6.8615391975       19.5897748207
C                27.6483592060        7.0931956578       20.9597733318
O                27.3368146498        6.4410166045       21.9466996330
C                27.9519991217        6.1141922802       18.6565126966
C                28.4104455016        4.7773282371       19.2206782169
C                28.5651298533        3.6937669232       18.1454132714
O                28.2228232533        3.9041073128       16.9729067475
O                29.0108165371        2.5837008681       18.5588095540
H                26.9161344967        8.2706474918       18.0164915057
H                26.0987199147        6.2625379124       19.7701049883
H                27.4323910253        5.9425166787       17.7092434595
H                28.8134310279        6.7453492048       18.4380623873
H                29.3577028414        4.8637890374       19.7537060432
H                27.6784288831        4.3828085903       19.9319525185
N                28.5995855313        8.0319593396       20.9701678790
C                29.3318001383        8.3511667136       22.1767903927
C                28.3687464579        8.7842514707       23.2881093658
O                28.3942856560        8.2772235397       24.4049811427
H                28.8810432215        8.4591622547       20.0986984340
H                29.8892731231        7.4768873776       22.5285551997
H                30.0154471646        9.1676538921       21.9490783165
N                27.5728585743        9.7934608941       22.9416015394
C                26.5323685824       10.3112921469       23.8133388016
C                25.7353572390        9.1655267447       24.4384937477
O                25.5612830224        9.0845784096       25.6493132130
C                25.6205725257       11.2639108237       23.0197196140
C                24.3214207447       11.5351635593       23.7743687948
C                26.3570903561       12.5718194995       22.7413086263
H                27.5817070441       10.1085692015       21.9750357775
H                26.9992513693       10.8480016693       24.6506502519
H                25.3829589891       10.7645414099       22.0765794612
H                23.7463982773       12.3010926547       23.2616150176
H                23.7127476941       10.6372166422       23.8404076001
H                24.5321988738       11.8740535723       24.7842155725
H                25.7185474030       13.2350394534       22.1642527875
H                26.5939427788       13.0489648787       23.6879914453
H                27.2701657841       12.3844969041       22.1829540801
N                25.2168886736        8.3034998303       23.5642434976
C                24.3926131888        7.1959249450       23.9964979235
C                25.0961032931        6.4252813429       25.1100891488
O                24.5398189597        6.2139553721       26.1825127973
C                24.0417596295        6.2820176778       22.8160850746
C                23.3877355764        5.0017224428       23.3262887809
C                23.1037134497        6.9979368088       21.8442559858
H                25.4125720837        8.3896911860       22.5734015603
H                23.4715580205        7.5952552412       24.4485835749
H                24.9760330515        6.0293089647       22.3045549708
H                23.1129064028        4.3814750190       22.4790890709
H                24.0625615031        4.4336751500       23.9641372899
H                22.5017991539        5.2441011145       23.9078696500
H                22.8890491442        6.3508450109       20.9981279544
H                22.1698070847        7.2548479997       22.3359641687
H                23.5615516825        7.9060082831       21.4653160378
N                26.3398693587        6.0158098013       24.8475246995
C                27.0369370187        5.2220759998       25.8364195181
C                27.1586930104        5.9818801671       27.1591766854
O                26.9468361741        5.4387951667       28.2361301599
C                28.4192374626        4.7965666790       25.3478872033
O                28.2808062245        3.6071832533       24.5951795864
H                26.7480836386        6.1329518676       23.9282511015
H                26.4516082832        4.3158575831       26.0447343670
H                28.8473888204        5.6056177943       24.7426925753
H                29.0653876374        4.6155881221       26.2189221240
H                29.1069141770        3.4147790534       24.1339857168
N                27.5445498030        7.2531896938       27.0596493353
C                27.6578538257        8.0789509328       28.2496156265
C                26.4128758614        7.9116412349       29.1331540504
O                26.4957151028        7.7368312197       30.3417815887
C                27.8171357723        9.5480808828       27.8688112725
C                29.1462422367        9.8178813733       27.1668733277
C                29.1419554617       11.1737193317       26.4905351639
O                28.3758609537       12.0813250445       26.7960016806
N                30.0527412633       11.3284870622       25.5220198484
H                27.6445051899        7.6882460423       26.1494154098
H                28.5132690336        7.7327854308       28.8457790099
H                26.9950553146        9.8153928782       27.2035039599
H                27.7367194998       10.1580622006       28.7700955052
H                29.9667442295        9.7870018502       27.8855378902
H                29.3265665124        9.0553906159       26.4092075291
H                30.6475967320       10.5676280384       25.2411100072
H                30.0757295082       12.2041856220       25.0120616380
N                25.2633898487        8.0820647642       28.4782616813
C                23.9724352053        7.9649724685       29.1245742312
C                23.8133577925        6.5700495690       29.7231966027
O                23.5017981102        6.4203847838       30.9020956830
C                22.8342323989        8.2858600057       28.1435666188
C                22.8785623000        9.7737719238       27.7766844338
C                21.4953029514        7.8951681577       28.7652506613
C                21.9656620480       10.1222539862       26.6080576856
H                25.2744059541        8.1946545582       27.4716812872
H                23.9413852486        8.6638011560       29.9720222688
H                23.0076903715        7.6856490506       27.2448567475
H                22.5943914640       10.3612631272       28.6506822370
H                23.9020249860       10.0405279261       27.5058784451
H                20.6716711415        8.1466068122       28.1061209282
H                21.4656939282        6.8255667784       28.9535189894
H                21.3582140887        8.4103141813       29.7116890350
H                22.0534342705       11.1810855930       26.3805126351
H                22.2622333716        9.5572485627       25.7275916649
H                20.9282942337        9.8996197876       26.8406707680
N                24.0287900797        5.5492990878       28.8989496604
C                23.9109427296        4.1837384422       29.3627098346
C                24.5822155322        4.0245854548       30.7271166791
O                24.0275518049        3.4297574886       31.6504381298
C                24.5750285276        3.2156930106       28.3933228654
C                23.8335824786        3.0380052276       27.0463882325
O                22.6013999173        3.2048564707       27.0089211618
O                24.5292010437        2.6786002393       26.0732632706
H                24.2789037471        5.7091043429       27.9302208062
H                22.8484422013        3.9192890666       29.4764935711
H                25.5998143400        3.5346142021       28.1996429444
H                24.6154996682        2.2247132781       28.8566549459
N                25.8138865400        4.5222862073       30.7996882108
C                26.6684856013        4.3667055626       31.9608491864
C                26.0902068240        5.1125803282       33.1643215269
O                26.0276543092        4.6014354150       34.2766316520
C                28.0576132158        4.8867480799       31.6172234546
H                26.2330247998        4.9310441649       29.9734640330
H                26.7044647141        3.3061881787       32.2466358870
H                28.7276762209        4.7507999950       32.4596439946
H                28.4382832504        4.3388436643       30.7593030469
H                27.9971480799        5.9418153712       31.3602692774
N                25.7022506066        6.3693778091       32.9399577128
C                25.0534687269        7.1092050425       34.0054060763
C                23.8790884713        6.2828974278       34.5393797163
O                23.7230503537        6.0738540853       35.7374108626
C                24.5984328666        8.4931217950       33.5264916514
C                23.7520303369        9.1701373282       34.6046788394
C                25.8136613403        9.3543176780       33.1872739155
H                25.7473239792        6.7713802035       32.0114800205
H                25.7599434413        7.2192191225       34.8391584083
H                23.9950419308        8.3455458341       32.6250634988
H                23.4809008890       10.1743078912       34.2916616610
H                22.8448675560        8.6042955009       34.8028376163
H                24.3123883382        9.2426765917       35.5330164923
H                25.4873630455       10.3458034195       32.8825194503
H                26.4600524362        9.4592334269       34.0539972846
H                26.3838344420        8.9184875411       32.3724639158
N                23.0404740818        5.8545495771       33.5979036997
C                21.8705532335        5.0691230353       33.9049410943
C                22.1925687094        3.8422542822       34.7471725191
O                21.5108993302        3.5444203657       35.7242118157
H                23.2482895655        6.0314649600       32.6223161950
H                21.1388493600        5.6689933504       34.4589934957
H                21.4204140488        4.7452652849       32.9662951765
N                23.2327721085        3.1127677850       34.3410999204
C                23.5738240282        1.9052761581       35.0603223591
C                24.0026534893        2.2552423173       36.4866559445
O                23.6057110836        1.5952781787       37.4440988119
C                24.6353486950        1.0694731607       34.3278158709
O                25.9381064792        1.5761093445       34.4615828484
H                23.7081314730        3.3141877972       33.4654894541
H                22.6750528779        1.2788443404       35.1534167050
H                24.5684895591        0.0414196562       34.7031648710
H                24.3797457250        1.0667509286       33.2594682043
H                26.4737393194        0.9679967173       34.9939793399
N                24.7976670055        3.3123201431       36.6116567501
C                25.1764061385        3.7777885299       37.9320769634
C                23.9283411942        4.0612826129       38.7767124088
O                23.8461871092        3.6321160532       39.9256535902
C                26.0647383681        5.0182892693       37.8461059138
C                27.4854211092        4.6562271571       37.4120563338
C                28.3549396909        5.9066147583       37.2674848241
C                29.8321150470        5.5667556314       37.0855027431
N                30.5456841793        5.5710632707       38.4022559426
H                25.1769777506        3.7855328265       35.7946051651
H                25.7074310563        2.9685857629       38.4543139763
H                25.6088672303        5.7134417140       37.1408601348
H                26.0805088651        5.4902352077       38.8304195659
H                27.9038189053        3.9696289324       38.1497075003
H                27.4360966528        4.1377590072       36.4537344218
H                28.0070134706        6.4616367196       36.4003549035
H                28.2185906794        6.5486729390       38.1378485086
H                29.9322122564        4.5766453694       36.6436703947
H                30.3215217216        6.2898741417       36.4354128139
H                31.5158733028        5.2557328200       38.2903002135
H                30.5560802635        6.5256558022       38.7896179064
H                30.0656102540        4.9521503793       39.0754583312
N                22.9843788518        4.8067832037       38.2084886466
C                21.7762054290        5.1500971668       38.9345355202
C                21.0580189245        3.8839820176       39.4036268005
O                20.6181357281        3.7641076350       40.5454184042
C                20.8133742583        5.9710721691       38.0780572160
C                21.3563882399        7.3352918242       37.6305893235
C                20.2675225353        8.0579415310       36.8381401585
C                21.7922882801        8.1889130222       38.8182873325
H                23.1129951186        5.1817006933       37.2736873048
H                22.0359934001        5.7070534074       39.8427919852
H                20.5444211823        5.3792727658       37.2000335555
H                19.9106137521        6.1315840319       38.6721414346
H                22.2180196316        7.1764025943       36.9769950216
H                20.6420632316        8.9983497436       36.4420978164
H                19.9151878293        7.4463821252       36.0102615104
H                19.4189425213        8.2737208412       37.4837320989
H                21.9541670849        9.2162133137       38.5029184456
H                21.0235618269        8.1814754347       39.5879570879
H                22.7168848255        7.8164789157       39.2502079317
N                20.9336734602        2.9315336214       38.4798550186
C                20.2686906851        1.6776995945       38.7803960739
C                20.9728410061        1.0106888663       39.9623560061
O                20.3492271577        0.4980438191       40.8875305723
C                20.2282942300        0.7684795685       37.5404983701
C                18.8051247777        0.4519466511       37.0824217041
C                18.0745405747       -0.4678989077       38.0599448588
C                16.5962425350       -0.5945981340       37.7020827615
N                15.8647340352       -1.2562560932       38.8089239862
H                21.2455092189        3.0979506097       37.5287056774
H                19.2507506159        1.8995502212       39.1293586910
H                20.7529606104        1.2821328016       36.7347051527
H                20.7622912366       -0.1610857222       37.7351036121
H                18.2541360785        1.3868652659       36.9722779693
H                18.8559277089       -0.0266766272       36.1046118895
H                18.5494191965       -1.4486399947       38.0504288263
H                18.1473288539       -0.0634354091       39.0698685499
H                16.1714404098        0.4007987657       37.5642654092
H                16.4702366168       -1.1627316675       36.7781410568
H                14.8563973769       -1.2326613176       38.6612689624
H                16.1751945538       -2.2228272965       38.9198942235
H                16.0931794249       -0.7096353841       39.7487565766
N                22.3057584166        0.9853559910       39.8995514486
C                23.0854597128        0.4652755792       41.0043070474
C                22.7264052014        1.1846886158       42.3114291662
O                22.4838602611        0.5370011144       43.3253464828
C                24.5900621134        0.5721745097       40.7362525511
C                25.2169657749       -0.7032483367       40.1752365097
S                25.9757818186       -1.7623609463       41.4596895544
C                24.5197006271       -2.4983364080       42.2644649579
H                22.7902278972        1.3677135438       39.0923923345
H                22.7984173996       -0.5819333644       41.1694182141
H                24.7367035222        1.4001022236       40.0433926573
H                25.1013365679        0.8266607016       41.6658176297
H                24.5128478003       -1.3050197558       39.6023744871
H                26.0541307736       -0.4646568268       39.5236999775
H                24.9046563521       -3.1939886122       43.0033051001
H                23.9311748119       -1.7323444460       42.7604924781
H                23.9353019094       -3.0360729391       41.5232463022
O                28.3375859101        2.4811204841       28.6625117660
H                28.9116007224        1.7431066629       28.8862063278
H                27.8166388166        2.1879615393       27.8919140870
O                20.8706258837        9.3646249134       31.8102210582
H                21.3327542666        9.4049490767       32.6519371276
H                20.3320117358       10.1554421501       31.7421522387
O                19.2469275218        7.0587745344       32.0159960006
H                19.8304139670        7.8278382384       31.9005182154
H                19.0497410676        6.7569145983       31.1260579997
O                26.9915041118        1.6518717769       26.3759444217
H                27.4842329690        2.1476240924       25.7058038343
H                26.0700219541        1.9916696113       26.2947493572
O                19.9641067345        6.3903934578       25.0128763983
H                19.6405552171        6.8903274344       25.7836372282
H                20.5770256444        6.9799462794       24.5680192724
O                28.3375859101       -2.4811204841       33.6434882340
H                28.9116007224       -1.7431066629       33.4197936722
H                27.8166388166       -2.1879615393       34.4140859130
O                25.9816839862       13.3921797515       31.8102210582
H                25.7156980449       13.7722325892       32.6519371276
H                25.5661232434       12.5303175982       31.7421522387
O                28.7904581727       13.1389409114       32.0159960006
H                27.8326862454       13.2597231438       31.9005182154
H                29.1504697729       13.1191024010       31.1260579997
O                26.9915041118       -1.6518717769       35.9300555783
H                27.4842329690       -2.1476240924       36.6001961657
H                26.0700219541       -1.9916696113       36.0112506428
N                16.8915576157        7.7732003351       16.9566328533
C                17.6689199225        7.5407342498       18.1611937470
C                17.7998649222        8.8344339008       18.9689748355
O                17.5747048400        8.8671044537       20.1738669682
C                19.0434848390        6.9500387704       17.8037701431
C                19.9104441943        6.8237498994       19.0556928729
C                18.8730056638        5.5843948791       17.1390952869
H                17.3622338367        7.7040539576       16.0600960696
H                17.1076326518        6.8418741455       18.7950248503
H                19.5142770067        7.6373768803       17.0941824489
H                20.8822192706        6.4243651581       18.7832499614
H                20.0526103934        7.7899073758       19.5314090399
H                19.4314881625        6.1590777535       19.7680667104
H                19.8456105991        5.1573626185       16.9111408476
H                18.3383046494        4.9074920255       17.7991847135
H                18.3160334870        5.6700959920       16.2102572623
N                16.9584566381        9.7859867270       22.9416015394
C                17.9271566539       10.4281618660       23.8133388016
C                17.3334003805       11.6912766375       24.4384937477
O                17.3503341742       11.8825034987       25.6493132130
C                19.2080466564       10.7414910758       23.0197196140
C                20.0925343068       11.7309631536       23.7743687948
C                19.9724698803        9.4496935864       22.7413086263
H                17.2269242024        9.6207695736       21.9750357775
H                18.1585193412        9.7554747507       24.6506502519
H                18.8943868265       11.1969551416       22.0765794612
H                21.0433595946       11.8459826704       23.2616150176
H                19.6192259906       12.7070629366       23.8404076001
H                20.2806326026       11.3789789327       24.7842155725
H                20.8661066853        9.6710780282       22.1642527875
H                20.2672636886        9.0060006818       23.6879914453
H                19.3537060400        8.7526083678       22.1829540801
N                14.7726716318       11.0806384422       27.0596493353
C                15.4311498309       10.5696336607       28.2496156265
C                15.9087443644       11.7314710539       29.1331540504
O                15.7159348297       11.7471351740       30.3417815887
C                16.6238127158        9.6971264736       27.8688112725
C                16.1929135623        8.4111862658       27.1668733277
C                17.3692470652        7.7369797427       26.4905351639
O                18.5383039231        7.9466341919       26.7960016806
N                17.0478869506        6.8708322359       25.5220198484
H                15.0994637882       10.7765463637       26.1494154098
H                14.7036541083       10.0019051109       28.8457790099
H                17.2663519234       10.2754130362       27.2035039599
H                17.1922801691        9.4617783496       28.7700955052
H                15.7559201144        7.7160504577       27.8855378902
H                15.4424150584        8.6362662409       26.4092075291
H                16.0915359731        6.7361018003       25.2411100072
H                17.7947700271        6.4130745519       25.0120616380
N                16.6310784764       12.6417433776       28.4782616813
C                17.1751508955       13.8182890417       29.1245742312
C                16.0466509346       14.6535155721       29.7231966027
O                16.0728172698       14.9981665643       30.9020956830
C                18.0221490577       14.6435578181       28.1435666188
C                19.2885536268       13.8612110385       27.7766844338
C                18.3532647160       15.9984506575       28.7652506613
C                20.0467980716       14.4775648167       26.6080576856
H                16.7230760455       12.5759082534       27.4716812872
H                17.7958792702       13.4957647492       29.9720222688
H                17.4156221367       14.7934442849       27.2448567475
H                19.9394213514       13.8135645998       28.6506822370
H                19.0078397584       12.8414883515       27.5058784451
H                18.9828328833       16.5860174010       28.1061209282
H                17.4417672613       16.5588935134       28.9535189894
H                18.8679386905       15.8596000833       29.7116890350
H                20.9198870302       13.8721360388       26.3805126351
H                19.4092033598       14.5032292282       25.7275916649
H                20.3726751070       15.4872687962       26.8406707680
N                24.8960316749       17.8377050126       28.4782616813
C                25.6429138992       16.7782516441       29.1245742312
C                26.9304912729       17.3379480132       29.7231966027
O                27.2158846200       17.1429618062       30.9020956830
C                25.9341185434       15.6320953305       28.1435666188
C                24.6233840731       14.9265301920       27.7766844338
C                26.9419323326       14.6678943391       28.7652506613
C                24.7780398804       13.9616943514       26.6080576856
H                24.7930180003       17.7909503428       27.4716812872
H                25.0532354812       16.4019472491       29.9720222688
H                26.3671874919       16.0824198188       27.2448567475
H                24.2566871845       14.3866854273       28.6506822370
H                23.8806352556       15.6794968767       27.5058784451
H                27.1359959752       13.8288889411       28.1061209282
H                27.8830388106       15.1770528624       28.9535189894
H                26.5643472208       14.2915988896       29.7116890350
H                23.8171786993       13.5082915224       26.3805126351
H                25.1190632686       14.5010353634       25.7275916649
H                25.4895306593       13.1746245704       26.8406707680
N                24.0287900797       -5.5492990878       33.4070503396
C                23.9109427296       -4.1837384422       32.9432901654
C                24.5822155322       -4.0245854548       31.5788833209
O                24.0275518049       -3.4297574886       30.6555618702
C                24.5750285276       -3.2156930106       33.9126771346
C                23.8335824786       -3.0380052276       35.2596117675
O                22.6013999173       -3.2048564707       35.2970788382
O                24.5292010437       -2.6786002393       36.2327367294
H                24.2789037471       -5.7091043429       34.3757791938
H                22.8484422013       -3.9192890666       32.8295064289
H                25.5998143400       -3.5346142021       34.1063570556
H                24.6154996682       -2.2247132781       33.4493450541
N                23.2327721085       -3.1127677850       27.9649000796
C                23.5738240282       -1.9052761581       27.2456776409
C                24.0026534893       -2.2552423173       25.8193440555
O                23.6057110836       -1.5952781787       24.8619011881
C                24.6353486950       -1.0694731607       27.9781841291
O                25.9381064792       -1.5761093445       27.8444171516
H                23.7081314730       -3.3141877972       28.8405105459
H                22.6750528779       -1.2788443404       27.1525832950
H                24.5684895591       -0.0414196562       27.6028351290
H                24.3797457250       -1.0667509286       29.0465317957
H                26.4737393194       -0.9679967173       27.3120206601
N                20.9336734602       -2.9315336214       23.8261449814
C                20.2686906851       -1.6776995945       23.5256039261
C                20.9728410061       -1.0106888663       22.3436439939
O                20.3492271577       -0.4980438191       21.4184694277
C                20.2282942300       -0.7684795685       24.7655016299
C                18.8051247777       -0.4519466511       25.2235782959
C                18.0745405747        0.4678989077       24.2460551412
C                16.5962425350        0.5945981340       24.6039172385
N                15.8647340352        1.2562560932       23.4970760138
H                21.2455092189       -3.0979506097       24.7772943226
H                19.2507506159       -1.8995502212       23.1766413090
H                20.7529606104       -1.2821328016       25.5712948473
H                20.7622912366        0.1610857222       24.5708963879
H                18.2541360785       -1.3868652659       25.3337220307
H                18.8559277089        0.0266766272       26.2013881105
H                18.5494191965        1.4486399947       24.2555711737
H                18.1473288539        0.0634354091       23.2361314501
H                16.1714404098       -0.4007987657       24.7417345908
H                16.4702366168        1.1627316675       25.5278589432
H                14.8563973769        1.2326613176       23.6447310376
H                16.1751945538        2.2228272965       23.3861057765
H                16.0931794249        0.7096353841       22.5572434234
N                22.3057584166       -0.9853559910       22.4064485514
C                23.0854597128       -0.4652755792       21.3016929526
C                22.7264052014       -1.1846886158       19.9945708338
O                22.4838602611       -0.5370011144       18.9806535172
C                24.5900621134       -0.5721745097       21.5697474489
C                25.2169657749        0.7032483367       22.1307634903
S                25.9757818186        1.7623609463       20.8463104456
C                24.5197006271        2.4983364080       20.0415350421
H                22.7902278972       -1.3677135438       23.2136076655
H                22.7984173996        0.5819333644       21.1365817859
H                24.7367035222       -1.4001022236       22.2626073427
H                25.1013365679       -0.8266607016       20.6401823703
H                24.5128478003        1.3050197558       22.7036255129
H                26.0541307736        0.4646568268       22.7823000225
H                24.9046563521        3.1939886122       19.3026948999
H                23.9311748119        1.7323444460       19.5455075219
H                23.9353019094        3.0360729391       20.7827536978
N                19.6113952411        0.0477192785       18.6720337895
C                19.7721443424        1.3984727055       18.1823031702
C                20.4906595189        1.4459716658       16.8257287757
O                20.3221869221        2.4039658724       16.0735088289
C                20.5014075727        2.2545906874       19.2214211073
C                19.6060194226        2.5423283801       20.4320504142
C                20.2414069422        3.5031897101       21.4463169731
N                21.0289734393        2.8085415598       22.4508378152
C                20.9991590810        2.9599615012       23.7787057154
N                20.0651928047        3.6927424590       24.3853454973
N                21.8381336382        2.2724906452       24.5481983309
H                19.9856923411       -0.1804058739       19.5876345087
H                18.7750735245        1.8219927187       17.9899094098
H                21.4050318717        1.7166840796       19.5091417743
H                20.7859540685        3.1914757040       18.7392739621
H                18.6834671273        2.9894820543       20.0635904989
H                19.3451601978        1.6067999481       20.9266312368
H                20.8917540046        4.2093194435       20.9197381496
H                19.4552897466        4.0688432366       21.9429697940
H                21.6724059865        2.1223369952       22.0841433162
H                19.5627256407        4.4178237672       23.8996560582
H                20.2037866570        3.8754233005       25.3720034661
H                22.6073121495        1.7659751184       24.1401557568
H                22.0390469075        2.6121371610       25.5176792753
H                27.0188676756       11.6783855318       18.5801697830
H                22.6896035977        2.1836434866       42.3385365104
H                23.2415550128       -5.9720542373       33.2996304487
H                25.4922014615       -4.4082176729       31.4215558606
H                22.3590714075       -3.0975004692       28.1803391524
H                24.6137970760       -3.0298981653       25.6568268764
H                20.3797911886       -3.6168253180       23.6428699972
H                22.6896035977       -2.1836434866       19.9674634896
H                18.7350587672       -0.1503453654       18.7249939754
H                21.0957456549        0.6976394560       16.5539390194
H                16.2202764811        7.1753615837       16.9122429265
H                18.0752638055        9.6817417817       18.5148550167
H                16.7504931373        8.9742509379       23.2699857520
H                16.9165889899       12.3890505786       23.8559306251
H                13.9026348513       10.8508990011       27.0756427640
H                15.2716064417       14.9279624902       29.1539998676
H                24.0565362111       17.8542691887       28.8022570429
H                27.5556915224       17.8719327741       29.1539998676
