 258 
 
N                26.9762173346       12.9213008125        8.0461438020
C                26.1959867611       11.8363553327        8.6134630994
C                27.1010863717       10.8870235439        9.4069002223
O                26.7557354188       10.5048465937       10.5258056577
C                25.3941807260       11.0997459226        7.5239164132
C                24.7534285450        9.8150481913        8.0555546123
C                24.3176077476       12.0228423346        6.9725158037
H                27.0387741632       12.9863928871        7.0357654609
H                25.5007489046       12.2572893818        9.3533667476
H                26.1055416342       10.8380676265        6.7329277436
H                24.2405901624        9.2992803875        7.2507404311
H                25.4954298806        9.1447420300        8.4827784156
H                24.0300801281       10.0459124193        8.8329647503
H                23.6997405137       11.4983642118        6.2501792854
H                23.6762904598       12.3715390791        7.7776608763
H                24.7615605883       12.8893726099        6.4874545261
N                28.2556761549       10.5491044867        8.8263227510
C                29.2083039286        9.6939061639        9.5268805714
C                29.5790877122       10.2869305918       10.8966055315
O                29.6031401824        9.6089555828       11.9254951157
C                30.4813806226        9.5562025653        8.7040487036
C                31.5963931789        8.7976472766        9.4358085546
C                31.1636564100        7.3863937520        9.8398248786
C                32.8454835189        8.7719001025        8.5490053299
H                28.4385218761       10.7832042250        7.8531781943
H                28.7396591222        8.7223982992        9.7308218994
H                30.2418121595        9.0367200612        7.7738127766
H                30.8377511886       10.5622327302        8.4774960107
H                31.8480700747        9.3456139570       10.3493059642
H                31.9784784126        6.8749368541       10.3474056758
H                30.3239784574        7.4101440357       10.5294673524
H                30.8779742477        6.7988254864        8.9700300937
H                33.6287502462        8.2016770492        9.0394240979
H                32.6212215826        8.3066805876        7.5925379843
H                33.1922003888        9.7915310704        8.4106186654
N                27.9230371915       12.4850269469       12.5894877563
C                26.7743412260       12.4851513454       13.4677189658
C                26.6774391250       11.1432597212       14.1907413648
O                26.4809874677       11.0877578985       15.4017435854
C                25.4650803473       12.7427239083       12.7295447833
C                25.2316751972       14.2208082836       12.4104473297
C                24.1242304851       14.3575189334       11.3710065745
C                24.8661399962       14.9955373078       13.6697818850
H                27.7940773970       12.7479455964       11.6165236865
H                26.9253124742       13.2301482782       14.2600208016
H                25.4848020252       12.1460374284       11.8155558363
H                24.6472605067       12.3694275968       13.3500741690
H                26.1537261572       14.6345613797       11.9935843915
H                23.9426577107       15.4060391669       11.1503925500
H                24.4014559844       13.8457250482       10.4531510335
H                23.2003898204       13.9231686637       11.7449270525
H                24.5845927068       16.0122153673       13.4174561081
H                24.0270133402       14.5283775313       14.1816273171
H                25.7036161119       15.0303227215       14.3602122475
N                26.7927781070       10.0700427621       13.4097359865
C                26.6800028198        8.7363637349       13.9588559472
C                27.7246458341        8.5292760685       15.0530768904
O                27.4280276260        8.0060965233       16.1206358182
C                26.8048881081        7.6646434666       12.8828327789
C                25.5744520599        7.5929095146       11.9777007024
C                25.8593727726        6.8684491562       10.6388705848
O                27.0175233585        6.9407617576       10.1855946505
O                24.9002762373        6.3183783255       10.0529805610
H                26.9337913133       10.1927150430       12.4106529666
H                25.7109693019        8.6452968052       14.4730026372
H                27.6779899015        7.8862148450       12.2652468460
H                26.9702333023        6.6963328504       13.3598344196
H                24.7287363607        7.1157173756       12.4699831585
H                25.2867300244        8.6055140539       11.6821463801
N                28.9537894428        8.9836504426       14.7768516007
C                30.0501178952        8.7780685923       15.7078466300
C                29.7829203778        9.5110048404       17.0288953190
O                29.9125812714        8.9641405395       18.1298215242
C                31.3701181650        9.2656500276       15.0822013200
O                31.6838080407        8.5375269014       13.9210040878
C                32.5249805638        9.0909098068       16.0543762270
H                29.1550586944        9.3381791106       13.8466078895
H                30.1299185708        7.7067536938       15.9447732724
H                31.2460104698       10.3332559413       14.8329673379
H                31.0241360708        8.7145771180       13.2324378775
H                33.4553192685        9.3530092746       15.5609040333
H                32.3901805470        9.7249097934       16.9253211896
H                32.5760619624        8.0526982066       16.3725761061
N                29.4408335220       10.7925610970       16.9236307915
C                29.1619114687       11.5536876086       18.1282795312
C                27.9359043138       11.0074248794       18.8585963607
O                27.9378712405       10.9241240962       20.0812721728
C                29.0052603415       13.0581103088       17.8318053225
C                28.5312747035       13.7997637036       19.0823573308
C                30.3292266453       13.6382985956       17.3346926459
H                29.2989206716       11.2325668081       16.0202981796
H                30.0031664604       11.4060526153       18.8184983690
H                28.2533622150       13.1581633674       17.0433591482
H                28.4377956492       14.8586147441       18.8572652891
H                27.5650052894       13.4344635881       19.4144735235
H                29.2426555339       13.6565939767       19.8891365450
H                30.2211445491       14.7051333663       17.1656634590
H                31.1142035839       13.4740100179       18.0672855483
H                30.6284219643       13.1707030572       16.3998216496
N                26.8731212058       10.6845026346       18.1196703645
C                25.6494442641       10.2524087571       18.7693111659
C                25.8723445142        8.9325274506       19.4961926683
O                25.3621021419        8.7166415125       20.5873451986
C                24.4997249699       10.1639712897       17.7753176699
C                23.1701738276        9.6852143071       18.3883410962
C                22.7619604104       10.5071067037       19.6107072049
C                22.0811695143        9.7685740141       17.3129657565
H                26.8681699672       10.7675621830       17.1106423955
H                25.4022676887       10.9859636308       19.5484777846
H                24.3646549799       11.1537033871       17.3359291766
H                24.7885925435        9.4814202967       16.9734019461
H                23.2776942142        8.6388494076       18.6880727270
H                21.7537738470       10.2368511108       19.9146586449
H                23.4266584734       10.3135021986       20.4469707603
H                22.7854528325       11.5683952501       19.3799215060
H                21.1176708633        9.4799634382       17.7224867261
H                22.0072169793       10.7807815048       16.9241335516
H                22.3170595262        9.0957649315       16.4960996684
N                26.7001383857        8.0697472561       18.9060174653
C                27.0441070696        6.8147048848       19.5412657550
C                27.7235506254        7.0560612213       20.8979704809
O                27.4208099079        6.4199922539       21.9000072661
C                27.9555162629        6.0149479208       18.6203696018
C                28.4191011956        4.7153688016       19.2578084123
C                28.6983695957        3.6241919542       18.2186739372
O                28.7590932116        3.8984497881       17.0145357429
O                28.8166394757        2.4562281800       18.7063737949
H                27.0263315701        8.2088980480       17.9574295468
H                26.1283211447        6.2443571290       19.7557052873
H                27.4241683932        5.7903831971       17.6928494302
H                28.8217507352        6.6172139779       18.3465274828
H                29.3355583409        4.8601510066       19.8324491423
H                27.6686656628        4.3118152349       19.9421147431
O                22.3294852916        5.9460672926       11.2596786698
H                23.1952003145        6.0841050406       10.8310561061
H                21.7293985976        6.5853389067       10.8533867813
O                26.5950647600        2.0224036523       12.2705839630
H                27.4328530676        2.4897689854       12.2891836344
H                25.9242109710        2.6850362992       12.4995374431
O                24.8158176314        4.0320064886       12.9175144010
H                24.3822445273        4.3321890283       13.7328641367
H                24.2248502200        4.2760093894       12.1991030373
O                23.4413070839        5.4461490015       14.8189746124
H                24.0363261127        6.2009014975       14.7735757450
H                22.6916603324        5.6484579784       14.2476094317
O                23.3828206465        5.9279254497       17.5346711738
H                24.2011952808        5.5230599289       17.8266151600
H                23.2564745283        5.6166909132       16.6247377296
N                20.0290150867        6.1630810517        6.9564922246
C                20.9121484456        6.4852366746        8.0603787322
C                20.3989320783        7.7281779924        8.7985758915
O                20.4192964762        7.7653314976       10.0262908545
C                22.3491702710        6.6772761323        7.5589377316
C                22.9586773031        5.3447376214        7.1076514565
C                24.2663527771        5.5127573479        6.3570221865
N                25.2828863350        6.1434067644        7.1668799775
C                26.4304174989        6.6078819669        6.6933344004
N                26.6694442100        6.6614718012        5.3778500092
N                27.3601519675        7.0544935968        7.5192641663
H                20.4005837145        6.1763033085        6.0141829015
H                20.8807995431        5.6668991448        8.7922698316
H                22.3162240742        7.3861814800        6.7291805943
H                22.9519231294        7.1018066076        8.3618324391
H                23.1213418601        4.7221425737        7.9883903535
H                22.2601326399        4.8305460395        6.4452925441
H                24.6111369680        4.5254396529        6.0255688082
H                24.0737390561        6.1324984670        5.4731334390
H                25.1542103393        6.1234346292        8.1869931181
H                26.0400035303        6.2562621131        4.7084234005
H                27.5718765644        6.9642239922        5.0504118017
H                27.2347677187        6.9916119141        8.5477687686
H                28.2009103178        7.4729082320        7.1625252544
N                17.3471907797        6.8827619118       10.8798226207
C                17.7475757494        6.1911665617       12.0806519501
C                18.3048804007        7.1954038431       13.0911397329
O                18.0305145923        7.1138525579       14.2924871362
C                18.7661591260        5.0996802259       11.7437634497
C                19.1743459625        4.2891925936       12.9757227437
C                18.0225723961        3.5123338092       13.5903115147
O                16.9220459816        3.3918643524       13.0540246199
N                18.2914957830        2.9448743018       14.7668181363
H                17.7619660889        6.5971684773        9.9963422224
H                16.8642690681        5.7386364035       12.5501266907
H                18.3056015593        4.4353887374       11.0118263383
H                19.6542642216        5.5615328572       11.3132788895
H                19.9554455546        3.5788097955       12.7041300198
H                19.5744242802        4.9463430230       13.7473749849
H                19.2179307929        2.9519167312       15.1834360278
H                17.5669721292        2.4203443424       15.2308338507
N                19.1143321209        8.1369404922       12.5894877563
C                19.6887878358        9.1316781803       13.4677189658
C                18.5751266506        9.8865436736       14.1907413648
O                18.6252864909       10.0844267108       15.4017435854
C                20.5664826580       10.1367450800       12.7295447833
C                21.9632438509        9.5998376817       12.4104473297
C                22.6353611027       10.4905576107       11.3710065745
C                22.8169464675        9.5290359396       13.6697818850
H                19.4065062477        8.1171636255       11.6165236865
H                20.2584884813        8.6284347777       14.2600208016
H                20.0398761693       10.4180088459       11.8155558363
H                20.6521084893       11.0316459934       13.3500741690
H                21.8605390630        8.5944415787       11.9935843915
H                23.6341926485       10.1235441293       11.1503925500
H                22.0535218470       10.5063702283       10.4531510335
H                22.7211230673       11.5078022303       11.7449270525
H                23.8381891391        9.2645240149       13.4174561081
H                22.8319375614       10.4893208290       14.1816273171
H                22.4283334615        8.7863676416       14.3602122475
N                16.8897155345        7.6687232372       16.9236307915
C                17.6883314558        7.5297135652       18.1282795312
C                17.8282576325        8.8645982712       18.8585963607
O                17.7551335748        8.9045452543       20.0812721728
C                19.0695252957        6.9131660708       17.8318053225
C                19.9488087955        6.9528229769       19.0823573308
C                18.9099999392        5.4764834746       17.3346926459
H                17.3417280834        7.5716205152       16.0202981796
H                17.1398483052        6.8749828680       18.8184983690
H                19.5321228494        7.5143024201       17.0433591482
H                20.9125402225        6.5043526925       18.8572652891
H                20.1155843224        7.9722868942       19.4144735235
H                19.4691297596        6.4083339695       19.8891365450
H                19.8879470004        5.0366679302       17.1656634590
H                18.3752333880        4.8788177932       18.0672855483
H                18.3554526647        5.4511704968       16.3998216496
N                21.4101107834        0.2201654970       16.4371765540
C                22.0698773470       -0.0072060951       15.1778257077
C                21.2116619046       -0.8200172966       14.2029191346
O                21.6553256502       -1.1777736854       13.1212677290
C                23.4502676322       -0.6393925295       15.3820280763
C                24.3589391676        0.2980744050       16.1744110159
C                25.8210945690       -0.1478432982       16.2285314569
C                26.6261232643        0.9110934492       16.9847006559
N                28.0785936334        0.6489742263       17.0374431769
H                21.4304316831       -0.5262130442       17.1194794764
H                22.1845843966        0.9786775949       14.7059564829
H                23.3151522246       -1.5769980391       15.9226387653
H                23.8608531217       -0.8514785082       14.3949464681
H                24.3133795011        1.2864393272       15.7152873180
H                23.9596900478        0.3774249328       17.1858468320
H                25.8910323556       -1.1127921673       16.7299800844
H                26.2010961952       -0.2492881788       15.2115139453
H                26.4870609517        1.8839441445       16.5117609996
H                26.2650184819        0.9825380907       18.0120749757
H                28.5269436449        1.4336142640       17.7534159791
H                28.2716963991       -0.2856250402       17.4020308850
H                28.5046962037        0.7594781867       16.1162726742
H                26.6307013205       13.7094995571        8.3095093711
H                29.8122127101       11.2561907386       10.9752662147
H                28.5396097252       13.0617911058       12.9012270956
H                28.4376780892        7.7508998337       20.9829485262
H                19.7080000653        5.3289424680        7.0621434394
H                20.0478496482        8.5080653372        8.2803897698
H                16.4604000658        6.7871550615       10.7595663943
H                17.7882077111       10.2289522852       13.6774043164
H                16.2410772770        7.0448228890       16.9195361009
H                17.9794754961        9.7054372633       18.3388628260
H                21.7847320666        0.9271634469       16.8492600321
H                20.2736622415       -1.0655873650       14.4475657645
