 497 
 
N                20.6697418426       39.2751935252       75.9822279603
C                19.6495914561       39.8195432443       75.1076900452
C                19.3165944327       41.2620472465       75.4687413462
O                18.8178249656       42.0328722245       74.6696706716
C                18.4751267186       38.8513185616       75.0849905402
C                17.1896489936       39.3714544643       74.5205472902
C                16.4473107255       40.2837619383       75.2629851822
C                16.6521539811       38.8009801105       73.3735381380
C                15.1444836175       40.5804111064       74.9189212914
C                15.3365261773       39.0740941536       73.0484882582
C                14.5814182387       39.9354000332       73.8304231084
H                20.3883213629       38.6418733605       76.7353389467
H                20.0824600641       39.8843013055       74.1054968365
H                18.7860928534       37.9565108688       74.5444459748
H                18.2803068564       38.5462237751       76.1196385497
H                16.8723781624       40.6982041170       76.1644535630
H                17.2227069166       38.0954962295       72.7933239359
H                14.5622975186       41.2580532833       75.5216956965
H                14.8706815772       38.6138318896       72.1898465983
H                13.5466242602       40.0988065130       73.5730316963
N                 9.1881863784       44.8527753281       70.1845292586
C                 8.8769786724       43.4297314907       70.2142758963
C                 7.8063705872       43.1285450088       71.2607578273
O                 6.8975264503       42.3426989981       71.0346870120
C                10.1638821474       42.6441869962       70.4312277417
C                10.0921453313       41.2343448803       69.8747960354
C                11.5182685550       40.6469661445       69.6176563880
O                11.5299668629       39.5253260624       69.0531939449
O                12.5103095304       41.2902901204       69.9741594788
H                10.1613183292       45.0954631685       70.0163050080
H                 8.4382364581       43.1542144364       69.2421555106
H                10.9661873500       43.1696784444       69.9045518883
H                10.4176094097       42.6387950573       71.4933137711
H                 9.5423709500       40.5716874302       70.5446484976
H                 9.5742494783       41.2317875574       68.9127056975
N                 2.1357179180       37.7947393364       79.7551856006
C                 3.3400823001       38.4765612542       80.1776970798
C                 4.5714760161       37.8826118603       79.5249120226
O                 4.8796757794       36.6999908363       79.6619789857
C                 3.5814031194       38.3255862242       81.6820322550
C                 2.5123397902       39.0733425207       82.4838329757
C                 4.9862094683       38.8289011388       82.0077959161
C                 2.2901655581       38.4612382744       83.8584644287
H                 2.0006215291       36.8590883589       80.1296862627
H                 3.2157416254       39.5277467446       79.9165394411
H                 3.5173988880       37.2614481330       81.9168791306
H                 2.8059027490       40.1190644052       82.5911774945
H                 1.5720713112       39.0297703262       81.9290953193
H                 5.1383021263       38.8154587566       83.0852957004
H                 5.7558841303       38.2025325887       81.5673583937
H                 5.1179083779       39.8519648392       81.6669904760
H                 1.4787709031       38.9705559931       84.3698641642
H                 2.0431413772       37.4054454813       83.7710286431
H                 3.1774787773       38.5517769703       84.4759454600
N                 5.3334721154       38.7098929494       78.8288396913
C                 6.5411717831       38.2193690812       78.1808593291
C                 7.7445602947       38.2993648385       79.1365370730
O                 8.1187862809       39.3442965820       79.6662885977
C                 6.7292616342       39.1896273204       77.0242742083
C                 6.2478036447       40.5143770520       77.6045527263
C                 5.0924044681       40.1113642399       78.5391610432
H                 6.4009542792       37.1808752574       77.8785197848
H                 7.7646054887       39.2180638233       76.6998384425
H                 6.0934797938       38.8891229859       76.1903103955
H                 7.0338285366       40.9833250021       78.1930489181
H                 5.9237091931       41.2082539971       76.8334400810
H                 5.1092170652       40.7103824741       79.4516957354
H                 4.1252170817       40.2230347509       78.0402784144
N                 8.3515946193       37.1279165198       79.3021124701
C                 9.5222629921       36.9825133577       80.1175393831
C                10.7182630657       36.6905533292       79.2483346900
O                10.6191188616       35.9303007423       78.2921054579
C                 9.3382909990       35.7570633245       81.0095631039
C                10.5060385721       35.6351905706       81.9777738350
C                 7.9770348262       35.8157451023       81.6939181319
H                 8.0177908527       36.2961947447       78.8193542250
H                 9.6672073543       37.8926261663       80.7031748699
H                 9.3425222230       34.8772106013       80.3535221623
H                10.3221621052       34.8349038947       82.6906885777
H                11.4351442443       35.4201253688       81.4563419979
H                10.6470409804       36.5674390515       82.5221914593
H                 7.8581145068       34.9502486572       82.3401727419
H                 7.8928350142       36.7127051595       82.3043271336
H                 7.1823086941       35.8226181725       80.9577395344
N                11.8654053749       37.2392989523       79.6328038194
C                13.1243634268       36.7709260693       79.0877200598
C                13.8518300337       35.9535934176       80.1738042036
O                14.0122281947       36.4336996969       81.2925766947
C                14.0144109674       37.9540998773       78.7082043194
C                15.3116258557       37.4515532851       78.1112685528
C                13.3024610430       38.8761424716       77.7378012705
H                11.9074306974       37.7934450477       80.4807374426
H                12.9039348335       36.1481916016       78.2195055109
H                14.2379939467       38.5182927541       79.6243133013
H                15.9471829680       38.2836269420       77.8140972430
H                15.8744335206       36.8551049520       78.8280213217
H                15.1047251043       36.8427981317       77.2398650178
H                13.8748790585       39.7901142414       77.6032669726
H                13.1953277136       38.3954394116       76.7683701244
H                12.3154757797       39.1425625035       78.1042659685
N                14.2430000320       34.7178479207       79.8559307614
C                15.0442857659       33.8670263182       80.7158222443
C                16.4301842678       33.7266186577       80.0542082436
O                16.5078624953       33.3204093997       78.8980183698
C                14.4037995153       32.4703756219       80.7977857179
C                15.3621502641       31.5241028972       81.5043670750
C                13.0223119761       32.4996476690       81.4416307565
H                14.1480942721       34.4205075813       78.8893944609
H                15.1326323037       34.3456864786       81.6931341925
H                14.2890582718       32.1293026468       79.7621116793
H                14.9028549435       30.5476583454       81.6292741911
H                16.2771134169       31.4021548446       80.9328895331
H                15.6207075154       31.9099222496       82.4892678150
H                12.5784855470       31.5102077869       81.3964911916
H                13.0931532779       32.8065560251       82.4831400281
H                12.3767970105       33.1996366974       80.9174475128
N                17.5093550401       33.9968664227       80.8168009343
C                18.8657716835       33.8096832501       80.3135341432
C                19.7843772897       33.2572497507       81.4089944124
O                19.8384046185       33.7307346866       82.5382813517
C                19.5081989330       35.0890191077       79.7291723585
C                18.7648460236       36.3761247248       80.0702276176
C                19.3495423111       37.6286878876       79.3165726912
O                19.8260931221       37.4660465278       78.1665331501
O                19.2629430168       38.7132907830       79.9259604426
H                17.3817871334       34.4570445156       81.7095968631
H                18.7617938697       33.0699804991       79.5116379346
H                20.5353719902       35.1784017538       80.0927630904
H                19.5443610372       35.0214381035       78.6409666219
H                17.7187701085       36.3102408544       79.7569456295
H                18.7770580298       36.5975503447       81.1385230598
N                19.3297234323       27.5992782739       77.4335555812
C                18.0314226514       27.2234596745       76.9302893427
C                17.8800748309       27.5172725764       75.4465160216
O                18.1657990238       28.5910078310       74.9245407375
C                16.8306765914       27.9326188344       77.5380527326
C                16.5793236799       27.7508130677       79.0262711045
C                15.1945870343       28.3258684649       79.2986520876
C                16.6704056629       26.2866841845       79.4378448242
H                19.5866717955       28.5721687317       77.4674573001
H                17.9577600294       26.1458103738       77.0940159901
H                16.8916605174       28.9958810137       77.2942852400
H                15.9625928718       27.5330030580       77.0057905356
H                17.3210563397       28.3142184985       79.6015437715
H                14.9954154805       28.3638109347       80.3661057951
H                15.1209044153       29.3312302367       78.8932473285
H                14.4432463900       27.6975286094       78.8279400472
H                16.2959743131       26.1609268995       80.4496466677
H                16.0807703907       25.6582845871       78.7725179024
H                17.7024683387       25.9443992559       79.4192774988
N                15.4006074838       28.4753099368       73.9887670048
C                14.6438352816       29.6740912872       73.7284553188
C                14.8581772655       30.6764703591       74.8540275152
O                15.4209646204       30.3535832480       75.8708414870
C                13.1580622243       29.3168653987       73.5837080197
C                12.8631595164       28.2476718963       72.5270339409
C                13.1634483997       28.7031248162       71.0869502490
C                12.1187355575       28.2250367008       70.0717621379
N                12.0746038093       26.7384388126       70.0061152637
H                15.1141670900       27.8399547132       74.7267925560
H                15.0612381266       30.0860465766       72.8017313409
H                12.8206233979       28.9483129854       74.5538562798
H                12.6010724297       30.2251985602       73.3590233880
H                13.4389823521       27.3567662561       72.7792758641
H                11.8017150815       28.0193166356       72.6323860342
H                13.1625642677       29.7916264611       71.0524818846
H                14.1626851755       28.3818110653       70.7929712221
H                11.1331644324       28.5860687235       70.3677148692
H                12.3625234225       28.6165065015       69.0847952977
H                11.3151172537       26.4171679010       69.3870804442
H                12.9668297863       26.3741359541       69.6398944993
H                11.9398488218       26.3482349577       70.9488110326
N                14.2937582578       31.9110928683       74.6650801589
C                14.6614326241       33.0175725422       75.5255867967
C                13.4711455107       33.8970581489       75.9030849319
O                13.4337181248       34.5471284248       76.9428824319
C                15.7858306170       33.8315689748       74.8355007778
O                16.9152583189       33.0060397010       74.7080392901
C                16.1229968758       35.1363629232       75.5247107122
H                14.2152642885       32.1722413044       73.6884338582
H                15.0810059183       32.6031864837       76.4513270701
H                15.4863164029       34.0448487440       73.8004133964
H                17.3224080233       32.8869454239       75.5730192253
H                17.0128420656       35.5745453739       75.0780584418
H                15.3104963197       35.8511189033       75.4273742799
H                16.3267825893       34.9686540502       76.5819031344
N                12.5079632871       33.9424418382       74.9801173634
C                11.2940224549       34.7212372133       75.1306643882
C                10.1711572445       33.7213452279       75.4319943420
O                 9.9948196258       32.7695577080       74.6841197780
C                11.0053534822       35.4656535467       73.8126190554
C                12.0150508556       36.5595200697       73.4774302852
C                11.6516933039       37.2622336923       72.1697779540
C                11.9466146866       36.3690763524       70.9588306124
N                11.3579930340       36.8896827263       69.6851679449
H                12.4905775256       33.2447332824       74.2488777823
H                11.4269929198       35.4146486061       75.9626793791
H                11.0046247460       34.7072840121       73.0313034726
H                10.0127052386       35.9099993261       73.8902232924
H                12.0208830357       37.2980341764       74.2811321642
H                13.0243589389       36.1498622616       73.4195693701
H                10.5974940714       37.5290306722       72.1979229179
H                12.2217506565       38.1880404553       72.0822840221
H                13.0277789347       36.3036058506       70.8320770189
H                11.5407266776       35.3738779402       71.1321207864
H                11.7273542034       36.3985282260       68.8633532536
H                10.3315527689       36.8583897627       69.7093717003
H                11.5836011876       37.9201678157       69.5348778295
N                 9.4274825058       33.9588562100       76.5033908930
C                 8.2864068387       33.1391507789       76.8680632462
C                 7.0687398260       34.0281030198       77.1861782700
O                 7.1515166669       35.0004673905       77.9401911117
C                 8.5486831220       32.3329500763       78.1555278627
C                 9.7106976911       31.4045496026       78.0177001773
C                11.0044973714       31.9084797974       77.9750398641
C                 9.4957957039       30.0373674303       77.9681244108
C                12.0800693409       31.0479512802       77.8813283693
C                10.5765117057       29.1827562359       77.9194517307
C                11.8671646962       29.6813362738       77.8676219923
H                 9.6581299107       34.7233417242       77.1300332009
H                 8.0770654357       32.4746728232       76.0273144114
H                 8.7365072312       33.0504543376       78.9598658701
H                 7.6393290926       31.7830760625       78.4039618483
H                11.1811417355       32.9716938262       78.0555081598
H                 8.4918705769       29.6474188833       78.0071714717
H                13.0849440784       31.4432260608       77.8388962725
H                10.4131602740       28.1170132008       77.9152974827
H                12.7162252738       29.0184501537       77.8240159342
N                 5.9309289670       33.6425733191       76.6054254197
C                 4.6612353678       34.2891266139       76.8905705655
C                 3.9693702004       33.5214308645       78.0032927834
O                 3.4722678757       32.4327597161       77.7220836342
C                 3.7334830160       34.2199871126       75.6822246767
C                 4.0745667009       35.3018300543       74.6769369570
C                 3.7972180294       34.7981734670       73.2571773304
C                 3.3096124979       36.5614202450       75.0504448289
H                 5.9054092571       32.7920392784       76.0513285419
H                 4.8676946191       35.3153272704       77.2043905472
H                 3.8411481572       33.2271169034       75.2456443642
H                 2.7001038928       34.3285275363       76.0093224579
H                 5.1406527218       35.5150901581       74.7462551947
H                 4.0709100469       35.5612700993       72.5396369224
H                 4.3892437167       33.9099579613       73.0560192727
H                 2.7444249503       34.5553104032       73.1366985433
H                 3.6664702296       37.4227283694       74.4967197707
H                 2.2493887914       36.4384472133       74.8438549873
H                 3.4307249227       36.7811021400       76.1098006412
N                 3.9013160234       34.1241440105       79.1970147887
C                 3.3775680536       33.4454679833       80.3564641673
C                 2.0229489781       34.0146523938       80.8116098849
O                 1.7744082445       35.2150289860       80.8855782638
C                 4.4177231809       33.4105863469       81.5131542707
C                 5.7025482028       32.7345911118       81.0583142810
C                 4.7369836264       34.7950239225       82.0411225851
H                 4.3004337897       35.0489025332       79.3332504712
H                 3.2331650512       32.4172873195       80.0298680859
H                 3.9666787160       32.8221134847       82.3181119371
H                 6.3777300641       32.6072694542       81.9001171842
H                 5.5065575964       31.7560656605       80.6278992782
H                 6.2022498117       33.3464519915       80.3108024060
H                 5.5034013797       34.7399241273       82.8098237805
H                 5.0855126735       35.4510944968       81.2572151531
H                 3.8483688784       35.2336057704       82.4949265475
N                 6.5565183222       28.0173156308       86.8830912449
C                 7.4507606248       28.5284551768       85.8853661197
C                 8.7865919059       27.8113750029       85.9176077131
O                 9.3234894889       27.3920123140       84.8933958938
C                 7.7341641199       30.0177205468       86.0111476286
C                 8.3407451195       30.5449593242       84.7289243759
C                 7.8638459222       30.1797026104       83.4553920549
C                 9.4029912844       31.4341697504       84.7751226436
C                 8.4265275698       30.7040603300       82.3075888147
C                 9.9299203359       31.9963260940       83.6021852951
C                 9.4561484490       31.6364595697       82.3622910595
H                 6.0268622108       28.6809765668       87.4413625820
H                 7.0163350233       28.3101818039       84.9011264399
H                 6.7814550504       30.5182261571       86.2003016314
H                 8.4040651567       30.2130475337       86.8476822826
H                 7.0392108433       29.4929953400       83.3513870912
H                 9.8089924981       31.7410417208       85.7260062608
H                 8.0456741835       30.3973143359       81.3444254229
H                10.7375042542       32.7053499382       83.7000685131
H                 9.8644331432       32.0539651897       81.4564352833
N                10.6861261839       25.7228455761       83.1060098455
C                11.9823740715       25.9442676238       82.5027124393
C                12.7915847616       24.6677621094       82.6675341951
O                13.4124299472       24.1498576543       81.7428466247
C                12.7466437468       27.1285126195       83.0981881095
C                12.4069548562       28.4358532640       82.3616689243
C                14.2523950488       26.8919616782       83.0395946809
C                11.4304520606       29.2172146492       83.2286829900
H                10.3843651189       26.2363067169       83.9230320206
H                11.8434341950       26.0842703572       81.4234871729
H                12.4537903359       27.2149993720       84.1473685980
H                13.3095993242       29.0276822074       82.2160255898
H                11.9705800338       28.2417894235       81.3839397277
H                14.7831449907       27.7695636504       83.4012000242
H                14.5478436534       26.0492981373       83.6515725649
H                14.5588613912       26.6950587268       82.0151879609
H                11.1551604772       30.1383301870       82.7329700960
H                10.5284631954       28.6442613745       83.4146260628
H                11.8861010181       29.4658704364       84.1818272274
N                12.5853524604       21.9499124730       80.1778491189
C                13.2029631563       22.1128428768       78.9050823457
C                14.7048414713       21.8197758649       78.9404822734
O                15.3795827415       21.9279209977       77.9235606899
C                12.9661316896       23.5081019187       78.3500763303
C                11.5014770810       23.7911723670       78.0593220940
C                11.4186175888       25.2443452427       77.5649061987
N                10.4194446046       25.4364842507       76.5337763490
C                10.6576982108       25.4371945475       75.2244902026
N                11.8684195643       25.6474361928       74.7123450325
N                 9.6208412321       25.3674717386       74.3850499264
H                12.5685628793       22.7180311266       80.8388491235
H                12.7771771951       21.3571897341       78.2298227017
H                13.3400615660       24.2219546567       79.0880722777
H                13.5665601222       23.6038466986       77.4425599310
H                11.1509688831       23.1027897937       77.2895854470
H                10.9078338977       23.6430671337       78.9605804066
H                11.1674540165       25.8944725451       78.4053888019
H                12.3927351878       25.5535615453       77.1877845607
H                 9.4674895913       25.2772268181       76.8371156211
H                12.6943856826       25.6530075106       75.3019079156
H                12.0776806769       25.2893927961       73.7928986805
H                 8.6926435264       25.1670097263       74.7225430215
H                 9.7742467216       25.3129599193       73.3920827349
N                 2.9394996410       35.6015953209       88.0805696528
C                 3.6343916297       36.3548946123       87.0656073953
C                 3.0696569210       37.7629732277       87.0206760193
O                 3.7883584736       38.7328366550       86.8146342900
C                 3.5300749238       35.6527238117       85.7209996013
C                 4.3148288638       34.3595629120       85.7526238188
S                 6.0506337037       34.7583689181       86.0965235371
C                 6.6640415023       33.0754648435       86.2014570819
H                 2.4354512571       34.7757928666       87.7889598824
H                 4.6948291600       36.4467197412       87.3390978840
H                 2.4831894062       35.4441925374       85.4880672295
H                 3.9450001286       36.2999828724       84.9476809590
H                 3.9579063467       33.6914863011       86.5363535548
H                 4.2648619739       33.8570986530       84.7861922959
H                 7.6757123821       33.1206553112       86.5918181382
H                 6.0184594456       32.5176610469       86.8776674114
H                 6.6705338347       32.6274154808       85.2117077462
N                 9.5464265705       43.6524130518       78.7572320937
C                 9.8795844400       42.3512427396       79.3144097012
C                10.2996720948       42.4237517127       80.7841867664
O                10.9661106630       43.3562992108       81.2119754781
C                11.1310444962       41.8159517817       78.6245682653
C                11.0170244903       41.5966934721       77.1438367786
C                 9.9198175942       40.9556461718       76.5965911490
C                12.0616266881       41.9823271662       76.3142133683
C                 9.8864242480       40.6545175313       75.2464477099
C                12.0267311951       41.6821396510       74.9700171266
C                10.9537448779       40.9888138749       74.4368403833
H                10.3335231509       44.2288641318       78.4742272238
H                 9.0128492337       41.6938972552       79.2064969426
H                11.9295029011       42.5358922329       78.8124130731
H                11.4085855387       40.8742437366       79.1096878054
H                 9.1007959398       40.6864336650       77.2410636235
H                12.8824924570       42.5448313549       76.7354024952
H                 9.0197168044       40.1783075254       74.8186146939
H                12.8162013877       42.0160665248       74.3168418151
H                10.9343286969       40.7607315425       73.3808926341
N                 9.9940304691       41.3490193143       81.5383818516
C                10.6876015516       41.0667108316       82.7971517979
C                11.8210659171       40.0521003566       82.5649573777
O                11.6061791047       38.9491011573       82.0713367728
C                 9.7438832252       40.5170208695       83.8681250887
C                 8.8274624158       39.4281409586       83.3448199076
C                10.6123049121       39.9869160720       84.9929181746
H                 9.4984057821       40.5787813283       81.1045936740
H                11.1196438280       42.0148832935       83.1345834748
H                 9.1416491897       41.3535658389       84.2414795900
H                 8.2305767220       39.0313794954       84.1629762873
H                 8.1553874514       39.7973386902       82.5738363992
H                 9.4199762071       38.6167949779       82.9309491799
H                 9.9985159412       39.6698031900       85.8338817924
H                11.2021687392       39.1317812382       84.6733279087
H                11.2891088712       40.7583811565       85.3594501933
N                13.0610153416       40.4464645617       82.8773505816
C                14.1914980159       39.5600740693       82.6883083617
C                14.4159507513       38.6852543996       83.9542068022
O                14.2403228356       39.1230113151       85.0965021768
C                15.4433743889       40.3838431318       82.3948621288
C                15.4228833219       41.1158436560       81.0762915461
C                14.4912099897       42.1091939900       80.7667056076
C                16.4082274978       40.8282857902       80.1392111657
C                14.5327761975       42.8069214189       79.5707633585
C                16.4436917921       41.4985186233       78.9321991821
C                15.5152107466       42.4945210059       78.6331560766
O                15.5686030922       43.1803631729       77.4595893801
H                13.2098294454       41.2784037324       83.4265523124
H                13.9459917501       38.8891556724       81.8597869148
H                15.5588831406       41.1036933947       83.2121291577
H                16.3063432734       39.7155512258       82.4055520987
H                13.7130047105       42.3763263147       81.4659849514
H                17.1544598229       40.0735754829       80.3417986229
H                13.8249389456       43.5961369814       79.3644402483
H                17.2168101910       41.2519437261       78.2184780136
H                16.2702816827       42.8120788832       76.8992103888
N                14.8284766758       37.4377765531       83.7313001730
C                15.1282863408       36.4941783485       84.7854247711
C                16.3972152358       35.7791289316       84.3923031509
O                16.5835715218       35.4051267489       83.2362887143
C                14.0771234103       35.3996318411       84.9301418800
C                12.7234254115       35.9775451231       85.2400190805
S                11.7022225936       34.5617686721       85.6160799545
C                10.1050563011       35.4115912265       85.7507883631
H                14.8234146024       37.0504946885       82.7910142053
H                15.2578385113       37.0394094566       85.7231730452
H                14.0299365741       34.8309588444       83.9980451988
H                14.3971897036       34.7293851696       85.7317156969
H                12.7648758922       36.6477375494       86.1023636991
H                12.3156292665       36.5143981674       84.3816981419
H                 9.3532015688       34.6547061514       85.9340621229
H                10.1446328384       36.1010030552       86.5884364529
H                 9.8973966335       35.9376057908       84.8252703384
N                 9.3645395434       32.9486428786       70.1132032908
C                 8.6191719226       33.5071884693       71.2977376711
C                 7.6285256045       32.4814197868       71.9644001573
O                 6.4322570399       32.5712958261       71.7770668284
C                 7.7753133701       34.7201290375       70.8558199614
C                 7.7224646671       35.7646189385       71.9533230280
C                 7.2837170562       35.4437908596       73.2296842166
C                 8.1927243147       37.0543041308       71.7084473914
C                 7.3759392209       36.3949749629       74.2265405063
C                 8.2881278099       38.0110983977       72.7041755986
C                 7.8888098744       37.6595895004       73.9713483553
H                 9.9827325019       33.6657426725       69.7053750728
H                 9.9286086598       32.1277402414       70.3886039513
H                 8.6864150984       32.6591479882       69.3860047315
H                 9.3437107241       33.8062564902       72.0600994324
H                 8.1738353885       35.1811255982       69.9543197077
H                 6.7571390455       34.3805192168       70.6486964355
H                 6.8897588165       34.4672267545       73.4522109791
H                 8.4680742317       37.3395927018       70.7017485210
H                 7.0899357684       36.1592914428       75.2416857132
H                 8.6497996579       39.0056770367       72.4879587528
H                 7.9697746154       38.3631331856       74.7820428220
N                 8.2475288316       31.5335173987       72.6856958587
C                 7.5615113104       30.3903280170       73.3047869707
C                 6.2122429876       30.6837172492       73.9909478680
O                 6.1397311339       31.2712911585       75.0706060376
C                 8.3814486449       29.7153159839       74.4370886626
C                 7.8692869087       28.2831580187       74.5301717634
C                 9.8900504963       29.7058740223       74.2407226772
H                 9.1185271115       31.7766575629       73.1536690289
H                 7.3824984572       29.6724022850       72.4975633951
H                 8.1664446141       30.2424543193       75.3684245698
H                 8.3467176314       27.7869691824       75.3706157545
H                 6.7943070001       28.2441836785       74.6925381458
H                 8.0998284719       27.7407498809       73.6184877587
H                10.3262481976       29.0342712626       74.9734196442
H                10.1339653470       29.3623237673       73.2415870982
H                10.3202052869       30.6845076643       74.4211224322
N                 3.4446957183       29.4985170454       76.3689174351
C                 3.5728558931       28.6667674165       77.5406202397
C                 2.3443568067       27.8014445140       77.7881006009
O                 1.2638660761       28.1093459199       77.3256060286
C                 3.7081756016       29.6280234330       78.7226162949
C                 4.5605453439       29.0264783337       79.8363185696
C                 2.2955721459       30.1057321095       79.0837351128
C                 5.9536701452       28.7064814376       79.2948457152
H                 3.0899025234       30.4354920395       76.4950044216
H                 4.4454159464       28.0298223288       77.3833783258
H                 4.2643823364       30.4936162424       78.3479381718
H                 4.6460741046       29.7553246016       80.6452892337
H                 4.0901483003       28.1415262446       80.2656872999
H                 2.2768101682       31.1790405692       79.1953410871
H                 1.5975909154       29.8732398987       78.2892145862
H                 1.9324911132       29.6007220374       79.9698795102
H                 6.6534397334       28.5644031379       80.1172759022
H                 5.9638064124       27.8018553027       78.6952869794
H                 6.3066447888       29.5350411290       78.6868593820
H                21.2602237807       38.8007743278       75.4961646868
H                19.5075433420       41.6040192934       76.3888465756
H                 8.7163641109       45.2498464950       69.5290002842
H                 7.8393924511       43.5778942439       72.1535034917
H                 1.4158335867       38.2720642361       80.0080244619
H                20.3765082405       32.4745412776       81.2172957344
H                19.4148646754       27.3186462692       78.2844355061
H                17.5283998545       26.8123554367       74.8305480539
H                15.4086219507       27.9590721363       73.2515870392
H                 1.2813222856       33.3951425445       81.0688984302
H                 5.9350636767       27.4972853595       86.4914758208
H                 9.2562174995       27.6680039885       86.7887544023
H                10.0405371090       25.9014120201       82.5049035559
H                12.8339072673       24.2140125249       83.5576578495
H                11.7166060691       21.7431292661       80.0659544676
H                15.1393894837       21.5386847386       79.7961433065
H                 3.5285714646       35.3135381278       88.6970251988
H                 2.0911239704       37.9139431554       87.1609662381
H                 9.0389443157       43.5433792987       78.0219951239
H                17.1041080041       35.6021533055       85.0771259323
H                 5.3581554981       30.3942881358       73.5587843010
H                 4.2516420566       29.6015836691       75.9839305807
H                 2.4214330177       26.9689805352       78.3367926654
