 408 
 
N                27.4828111636       30.7890828586       76.0118737224
C                26.9132421108       32.0221543399       76.5588221629
C                26.6089532320       32.9742145768       75.3800814637
O                27.2709467572       33.9543704415       75.1014847315
C                27.7485440468       32.6718790880       77.6920623210
O                28.8505623715       33.4379519306       77.3019086611
H                26.8319937508       30.0298682118       75.8842255013
H                25.9598447853       31.7478088801       77.0188283810
H                27.0879982716       33.3459545618       78.2424830305
H                28.0680091254       31.8638975420       78.3631954033
H                29.4277029199       32.8546040607       76.7655523368
N                25.5720401908       32.5703709313       74.6125998878
C                25.1142783669       33.4901412321       73.5802850398
C                24.7874030675       34.8244965722       74.2887652545
O                24.2754058379       34.8477275140       75.3962752905
C                23.9558428901       32.9168734571       72.7491475139
C                24.4736447117       31.8229638894       71.8121280550
C                22.8189342847       32.3987840554       73.6302744985
H                24.8758542179       31.9459786821       74.9903414154
H                25.9689518906       33.6656027004       72.9170352134
H                23.5686972559       33.7460700071       72.1477200825
H                23.6509175283       31.4095376247       71.2356679991
H                25.2081481381       32.2235284630       71.1189612170
H                24.9337790873       31.0211078771       72.3826313058
H                21.9172584623       32.2818055124       73.0345691470
H                23.0574239322       31.4269881290       74.0555759374
H                22.6027245612       33.1053205777       74.4293129482
N                25.2128854238       35.9208879069       73.6460820736
C                25.4236164400       37.1984474776       74.3178874605
C                24.0898147790       37.7060869583       74.8886318747
O                23.0449537665       37.5950713039       74.2571877864
C                26.0108844885       38.2138805112       73.3220994775
C                27.1102745372       39.1289804607       73.8697842852
C                28.3607805552       38.3843787837       74.3657723466
N                28.4003014816       38.2886975028       75.8168874843
C                28.6709208264       37.2207814316       76.5679321817
N                28.8746223639       36.0195628260       76.0504253039
N                28.7309568405       37.3688371843       77.8977935999
H                25.6452158050       35.8117535456       72.7400434496
H                26.1160814329       37.0161641407       75.1440806079
H                26.4369491354       37.6628452476       72.4812539388
H                25.2022320536       38.8332517489       72.9326472809
H                27.4082806737       39.7770395484       73.0455718853
H                26.7282290868       39.7833855433       74.6517589548
H                28.4030318574       37.3892366391       73.9269923127
H                29.2516028936       38.9317372510       74.0464649426
H                28.3479457282       39.1859358442       76.2821609631
H                28.6463097906       35.8126261495       75.0912940842
H                28.9026797500       35.1908761865       76.6420333437
H                28.7482823436       38.2801952246       78.3249066634
H                29.0022227052       36.5806481563       78.4631586082
N                24.1467973698       38.3339471944       76.0691272623
C                22.9337349145       38.8320689800       76.6968256711
C                21.9955537138       39.5050255657       75.7202136076
O                22.3677069515       40.3540583623       74.9095517580
C                23.4640993186       39.8197823595       77.7360379730
C                24.6967698070       39.0835081976       78.2479560999
C                25.2866434860       38.4885148868       76.9669214121
H                22.3964801032       38.0085614100       77.1866546483
H                23.7612603548       40.7448289403       77.2383812395
H                22.7360606923       40.0275154136       78.5174895048
H                25.3934592512       39.7461825365       78.7537485702
H                24.3882890873       38.2956693317       78.9355438791
H                25.9974100520       39.1916526147       76.5298587796
H                25.7641871244       37.5254860046       77.1595076301
N                20.7191377246       39.1941284173       75.9183593088
C                19.6360757036       39.7552567833       75.1404203891
C                19.4730467520       41.2676566373       75.3525427968
O                18.9590737039       41.9811140477       74.5105488925
C                18.3587351306       38.9770982354       75.4833073352
C                17.1665234033       39.3587509156       74.6554695591
C                16.1919853095       40.1965903698       75.1771958803
C                16.9859747159       38.8213412629       73.3879161096
C                15.0476969771       40.4918272748       74.4598435520
C                15.8361160413       39.1050811184       72.6713474554
C                14.8649534171       39.9405684200       73.2026761282
H                20.4821288285       38.5067399602       76.6467618936
H                19.8656203663       39.6171348104       74.0772473120
H                18.5877388169       37.9179620558       75.3436304069
H                18.1387396189       39.1122239674       76.5465732922
H                16.3050823579       40.5736660596       76.1820514465
H                17.7284788945       38.1473387065       72.9909801066
H                14.2921593968       41.1253941188       74.8965034168
H                15.6757731988       38.6509298895       71.7066526564
H                13.9668385847       40.1577110942       72.6441455318
N                19.9753241502       41.7595276389       76.4995900723
C                20.0817829336       43.1915714312       76.7204623812
C                20.9558343598       43.8722253729       75.6420612884
O                20.7145513685       45.0106205064       75.2762096561
C                20.6959723526       43.4875714307       78.0970493305
C                19.7151426540       43.4071548969       79.2734540094
C                18.8149703361       44.6433168953       79.3735615233
C                17.9712303292       44.6063874552       80.6465891042
N                17.2334618566       45.8750447672       80.8545104415
H                20.3055402111       41.1331235203       77.2197013294
H                19.0888019049       43.6486936734       76.6397408974
H                21.5090415803       42.7787216509       78.2656638343
H                21.1323719386       44.4871685423       78.0720391293
H                19.1075231211       42.5044011913       79.2075132501
H                20.3006482172       43.3276580714       80.1900040961
H                19.4498040519       45.5299668463       79.3943901354
H                18.1531903844       44.6943517444       78.5096937412
H                17.2426525679       43.7952624549       80.6016081452
H                18.6011791657       44.4379741003       81.5199793454
H                16.4576454456       45.7558775615       81.6128509662
H                17.8499896929       46.6379674108       81.1463812052
H                16.7114223565       46.1602519262       80.0188957713
N                22.0140638210       43.1662940799       75.2210045061
C                22.9625303089       43.6587735896       74.2443156801
C                22.5543880684       43.3575264844       72.7950510901
O                22.8864338513       44.1005965719       71.8831341604
C                24.3515291141       43.0490128699       74.4603126461
C                25.0465790819       43.5947374966       75.7093417227
C                26.4370112691       42.9917034150       75.8247015227
O                26.6305862129       41.7862043982       75.8772043389
N                27.4433750707       43.8759880494       75.8475617460
H                22.1163202486       42.1872733746       75.4672542472
H                23.0066479821       44.7498171059       74.3397793983
H                24.2578542926       41.9641876105       74.5422679503
H                24.9564786233       43.2802339846       73.5816447249
H                25.1053621448       44.6812904387       75.6643151836
H                24.4704195544       43.3152607191       76.5938168812
H                27.2885438496       44.8683217652       75.8128890581
H                28.3915945928       43.5435325889       75.9275259365
N                21.8227670627       42.2477023868       72.6171584300
C                21.3560732859       41.8110758248       71.3160837917
C                20.3278815344       42.7577584973       70.6701240847
O                19.8000138336       42.4112418753       69.6176070823
C                20.6613451085       40.4439041596       71.4216139270
C                21.5954593889       39.2381339908       71.5588501436
C                20.8048021094       37.9134646990       71.4596776724
N                21.2584075001       37.0275022415       70.3923765114
C                21.0556840907       37.1609223562       69.0808348049
N                21.3668289135       36.1577174859       68.2609141052
N                20.5058622397       38.2635575399       68.5674052192
H                21.7390413148       41.5856415742       73.3808889229
H                22.2063615116       41.7669433786       70.6213372073
H                19.9697921036       40.4937045455       72.2662973456
H                20.0632879828       40.3395135955       70.5157462968
H                22.3563340646       39.2733769355       70.7784749923
H                22.1200001243       39.2700938146       72.5135547567
H                20.9245883626       37.3629991175       72.3910866614
H                19.7410863400       38.1172077857       71.3153092807
H                21.7382759067       36.1941934247       70.6959380321
H                21.6937111255       35.2705075347       68.6064489704
H                21.2350898613       36.2432891807       67.2656951672
H                20.5200058650       39.1179747377       69.1027930566
H                20.4378752560       38.3539399362       67.5641900110
N                20.0112244720       43.8749308717       71.3170812129
C                18.9095664953       44.7258050672       70.9080280722
C                19.0712878025       46.1622027977       71.4253637256
O                18.6170178789       46.4770877007       72.5256220606
C                17.6085987620       44.2168304348       71.5655225561
C                17.1738470580       42.7979316166       71.2221746479
C                16.4802882715       42.6912295160       69.8669112990
C                16.3345414345       41.2302465501       69.4619962752
N                17.5589971352       40.8007990985       68.7126103422
H                20.4106447152       44.0617002947       72.2235634362
H                18.8670712185       44.7175848862       69.8156077567
H                17.7948590937       44.2502850071       72.6383449142
H                16.8192393538       44.9241874874       71.3107006625
H                18.0391650408       42.1434754978       71.2801781005
H                16.4845603075       42.4576514781       71.9967817272
H                15.4957921546       43.1536353900       69.9200917082
H                17.0471873522       43.2322073561       69.1101096058
H                16.2183475626       40.6209744801       70.3581930363
H                15.4527394383       41.0881987720       68.8386130035
H                17.4631031294       41.0649167624       67.7226037101
H                18.3967238267       41.3123238792       69.0773615009
H                17.6825305327       39.7821046268       68.7708143629
N                19.5818002521       47.1126363542       70.6390757031
C                19.4532294369       48.4719749325       71.1396197083
C                17.9932104390       48.5984017040       71.6036375493
O                17.0992865662       48.1292678848       70.9081268888
C                19.7395426137       49.5007440383       70.0434201748
O                21.0848253858       49.3682391884       69.6585668760
H                20.0324608715       46.9541926703       69.7519898662
H                20.1450177303       48.6330059582       71.9738842972
H                19.0701642006       49.3284271865       69.1896191139
H                19.5376073005       50.4982970679       70.4543837485
H                21.3232424764       50.0879839805       69.0639152455
N                14.9995879494       48.3466538421       69.1315654163
C                14.7844423031       47.1160137247       68.3873991200
C                13.7646516924       46.2270317924       69.1121496116
O                12.8249809799       45.6876276811       68.5479843132
C                16.1040454418       46.3379584743       68.1666484244
C                17.2851604124       47.2017059265       67.6886701487
C                15.8469763670       45.1887551442       67.1925825294
C                17.0904590169       47.9063436131       66.3515438060
H                15.9168490107       48.4766002637       69.5463751685
H                14.3317480699       47.3770804233       67.4226278238
H                16.3959277967       45.9331803748       69.1415769908
H                17.5112370817       47.9433830515       68.4545230426
H                18.1519279133       46.5436562035       67.6105170434
H                16.7742696332       44.6632642204       66.9880222740
H                15.1104125661       44.5005632983       67.5965556668
H                15.4545616662       45.5716789176       66.2546146218
H                17.9600055002       48.5186055574       66.1240328631
H                16.9644991630       47.1927412637       65.5427701545
H                16.2185424518       48.5563575397       66.3717054374
N                14.0576634569       45.9948185134       70.4103823389
C                13.2030062617       45.1423859508       71.2114613310
C                11.9358028416       45.8341794797       71.7015942343
O                10.9000717084       45.2040552966       71.8946166244
C                13.9734778635       44.5274534108       72.3880291499
C                14.2258756673       45.4763584030       73.5703454717
C                15.6582942542       45.3277172206       74.0805248514
N                15.8094779877       45.9391975990       75.3847507497
C                16.9692651472       46.2095014590       75.9643862752
N                18.1228121096       46.1598422213       75.3160775571
N                16.9608652031       46.4848184468       77.2882092171
H                14.6980392200       46.6129545479       70.8932973316
H                12.8676567470       44.3335603542       70.5486573366
H                13.4090488217       43.6586827494       72.7225703808
H                14.9235830183       44.1740126306       71.9954209695
H                14.0637285796       46.5124633734       73.2792507601
H                13.5279287686       45.2634368988       74.3827387567
H                15.9105206546       44.2638959853       74.1560900119
H                16.3354856120       45.8210359200       73.3804702694
H                14.9880110416       45.9589882408       75.9932042800
H                18.1850830584       46.0629974345       74.3071835080
H                19.0027199092       46.3148367812       75.7874212114
H                16.0440962027       46.5915574526       77.7074062249
H                17.6931851405       47.0772281484       77.6499921595
N                 9.2374107524       44.7919856254       69.6747886659
C                 8.8253470116       43.4106237785       69.8682109345
C                 7.8862028254       43.2683110138       71.0661736404
O                 6.9195251136       42.5162267891       71.0478810353
C                10.0656433400       42.5247930950       70.0220900465
C                 9.7500530145       41.0504863989       69.8155561875
C                11.0198962679       40.1743369217       69.5741781204
O                10.7757454358       39.0206437193       69.1433633427
O                12.1369618828       40.6384184016       69.8189337870
H                10.2267110551       44.9667904368       69.5752029230
H                 8.2537822886       43.0962687273       68.9821947553
H                10.7877805175       42.8298666030       69.2592691619
H                10.5176449138       42.6981602244       70.9993843281
H                 9.2173668382       40.6404241294       70.6760226870
H                 9.1052440695       40.9261398850       68.9425514193
N                11.8923127957       37.1509154301       79.6002633961
C                13.1864070479       36.8170963410       79.0431324428
C                13.9569919539       36.0528852194       80.1231848940
O                14.1402844991       36.5578541930       81.2289424041
C                13.9498209899       38.0847903257       78.6367844501
C                15.4064950731       37.7574699275       78.3445438494
C                13.2902007900       38.7205775453       77.4232498269
H                11.9024239608       37.6957771261       80.4540512268
H                13.0214141524       36.1818990826       78.1713026029
H                13.9121087086       38.7936479533       79.4739632330
H                15.9127598317       38.6372841431       77.9590343948
H                15.9228151365       37.4445010417       79.2481511817
H                15.4777979003       36.9609288891       77.6118123764
H                13.7046686755       39.7089009271       77.2424632332
H                13.4575931544       38.1094210230       76.5402104406
H                12.2190760589       38.8269122367       77.5755618881
N                17.5431147364       34.1474672820       80.8264318766
C                18.9199324829       34.0715123700       80.3879362250
C                19.7310664890       33.3029369023       81.4289985058
O                19.5923634489       33.5067723104       82.6279627150
C                19.5704628231       35.4633874115       80.2264905638
C                18.6431934606       36.4807610250       79.5695033556
C                19.4496812084       37.6567875426       78.9402401650
O                20.1661011375       37.3532349571       77.9573037611
O                19.3150299873       38.7919465553       79.4240898657
H                17.3638238223       34.5836401902       81.7231923887
H                18.9049248331       33.5603131663       79.4200250445
H                19.8757383107       35.8431367380       81.2050600785
H                20.4702195274       35.3577076742       79.6155721262
H                18.0942746351       36.0122758383       78.7488263169
H                17.9305996149       36.8849372571       80.2906422886
N                25.6205389995       34.6004329925       83.1263565610
C                26.7431831015       34.5177240508       82.2029681216
C                27.8216986138       33.5417116181       82.6815787688
O                28.3928763759       32.8106854794       81.8904065496
C                27.2527652686       35.9628492662       82.0639243173
C                26.5261181032       36.7340586128       83.1680027561
C                25.2086574346       35.9815725787       83.3042814427
H                26.3976067761       34.1229835210       81.2406560200
H                28.3349992570       36.0152047445       82.1605211383
H                26.9840255524       36.3509633045       81.0833321799
H                27.0802853577       36.6776372752       84.1045380287
H                26.3749596403       37.7788975294       82.9121456322
H                24.7462815152       36.1494110550       84.2711216014
H                24.5068292817       36.2510223101       82.5084541885
N                14.4782093070       32.0492521311       74.5184349764
C                14.8338172811       33.0778576889       75.4703495917
C                13.6347570875       33.9208624046       75.9114830152
O                13.6331279869       34.5264077053       76.9784066177
C                15.9477235843       33.9648074121       74.8538188204
O                16.9809182925       33.0860846529       74.4586988143
C                16.4294455005       35.0359241521       75.8148671924
H                14.5239945237       32.3508544738       73.5531452506
H                15.2505787604       32.5838802761       76.3564858320
H                15.5427542216       34.4575391681       73.9515625015
H                17.8362743020       33.5120070694       74.5721401232
H                17.2831702794       35.5742613134       75.4070951919
H                15.6346313991       35.7549502511       75.9883729410
H                16.7150355861       34.5919984557       76.7673005196
N                12.6356915372       33.9895563744       75.0262230302
C                11.4308776652       34.7703429966       75.2372240273
C                10.2537518003       33.7984202459       75.3551658694
O                10.1370822237       32.8888377882       74.5420254287
C                11.2271833462       35.7830492069       74.0824434424
C                11.6835473255       35.2519593258       72.7221202996
C                11.2425730898       36.1709956716       71.5773017016
C                11.6947939085       35.6251607260       70.2177423970
N                11.0461726607       36.3579843432       69.0994359201
H                12.6002359314       33.3085313737       74.2798298170
H                11.5400899124       35.3125338167       76.1789195642
H                10.1698975067       36.0523605817       74.0546761245
H                11.7804014490       36.6919810349       74.3238066324
H                12.7712578987       35.1813013122       72.7161136962
H                11.2641645097       34.2548745085       72.5826612975
H                10.1586997294       36.2825004244       71.6042607974
H                11.6634774890       37.1647783935       71.7301440959
H                12.7742888093       35.7482194377       70.1278455174
H                11.4548359875       34.5643087490       70.1354202062
H                11.4316140670       36.0904998133       68.1866145055
H                10.0273504486       36.2420417002       69.1056624772
H                11.1756709026       37.4151338339       69.1900925105
N                10.8469503153       45.5204188677       83.2873159495
C                11.9383334035       46.3576275795       82.8432437959
C                11.4296314126       47.7103788716       82.3008545644
O                10.2758517481       48.0862775799       82.4422076812
C                12.7616464242       45.5800571317       81.8184011234
C                14.2095285768       46.0571581665       81.6343648990
O                15.0872554804       45.5091530589       82.3428580965
O                14.4677692478       46.9101488484       80.7575001002
H                10.5044004753       44.8613376669       82.6019598175
H                12.5487849158       46.6102453357       83.7269127671
H                12.8128747948       44.5432107460       82.1552788524
H                12.2445027978       45.6102523191       80.8567390394
N                12.4062056317       48.4442953343       81.7475421748
C                12.1854992689       49.7386486273       81.1357269358
C                11.3354470491       49.5033822773       79.8875794445
O                10.3018028116       50.1044119123       79.6484884719
C                13.4989310662       50.4484739935       80.7538182634
C                14.7041193947       50.1171839391       81.6323140230
C                14.5140187002       50.2729246872       83.1770477863
O                13.6380426152       51.0522728715       83.5986846315
O                15.3120531702       49.6053203312       83.8716147744
H                13.2791706023       47.9948234372       81.5005048520
H                11.6118242632       50.3514993451       81.8410262233
H                13.7555721716       50.1809530683       79.7261012592
H                13.3040757698       51.5202183254       80.7964371293
H                15.0343724828       49.0927527613       81.4619398321
H                15.5277872102       50.7834183525       81.3642208170
N                 9.6029191808       43.6916485040       78.7505816228
C                 9.9861059477       42.3788573266       79.2252730515
C                10.2148898430       42.4086020495       80.7411232795
O                10.5086771484       43.4329547805       81.3434919052
C                11.3001206915       41.9456034905       78.5701200769
C                11.1651201525       41.6200704178       77.1066728320
C                10.3409561837       40.5854550046       76.6814142309
C                11.9114158605       42.3085667140       76.1604796460
C                10.2673309100       40.2449770033       75.3415093024
C                11.8273513822       41.9757827282       74.8199646683
C                11.0099404393       40.9403226081       74.4042753076
H                10.3678079978       44.3411293228       78.5722700569
H                 9.1751014250       41.6776470051       79.0014290247
H                12.0118200787       42.7611073009       78.7010273027
H                11.6765401767       41.0693878840       79.1055766204
H                 9.7794778630       40.0281958552       77.4182848283
H                12.5584031102       43.1130469318       76.4799363110
H                 9.6458550290       39.4236549201       75.0261426468
H                12.4007657416       42.5328244427       74.0953668828
H                10.9573698548       40.6825197248       73.3569955574
N                13.0183385508       40.3913288934       82.8889310110
C                14.2115770147       39.5931416883       82.7022621337
C                14.5079888157       38.7826028598       83.9769367868
O                14.4199280452       39.2874007640       85.0934619227
C                15.4266820517       40.4854446240       82.4086015387
C                15.4699578881       41.0762982487       81.0211437144
C                14.5900026253       42.0768932007       80.6113652584
C                16.4735497351       40.6915030520       80.1405089429
C                14.7386930113       42.7117002343       79.3937375992
C                16.6219645941       41.3087843441       78.9128732706
C                15.7719175658       42.3423130448       78.5334931284
O                15.9388814552       43.0225770775       77.3676290454
H                13.1251029550       41.2560972826       83.3961338496
H                14.0227152152       38.9003691389       81.8768677821
H                15.4322824953       41.2902936100       83.1488916427
H                16.3243841623       39.8819281550       82.5557891575
H                13.7908396707       42.4081754835       81.2587207413
H                17.1803986152       39.9204679976       80.4093647274
H                14.0848621704       43.5260536403       79.1189655947
H                17.4292800517       40.9934744004       78.2652567135
H                16.6680324321       42.6370684362       76.8582590915
H                27.8395486532       30.9560610123       75.2026415803
H                17.7804856010       49.0596782112       72.4650155890
H                14.8770301972       49.0524906526       68.5867957454
H                11.9380664763       46.8195473277       71.8720204063
H                 8.8588064098       45.1163213860       68.9254789395
H                 8.0524574153       43.7984990009       71.8975941776
H                11.4232811893       37.6333333233       79.0025324128
H                14.3137597954       35.1387488054       79.9306457447
H                17.0636329075       34.6213727902       80.2301846586
H                20.3945749480       32.6141045577       81.1369941808
H                24.8652101926       34.3535134584       82.7038531443
H                28.0633968026       33.4997175006       83.6510211238
H                15.0397613803       31.3514481168       74.6063487220
H                 9.5866254440       33.9081606810       76.0919829848
H                11.1099559276       45.0364017815       83.9990430799
H                11.6184096331       48.8238327631       79.2107156222
H                 9.1561090060       43.6115064171       77.9734471983
H                10.1254113802       41.5689723208       81.2768615769
H                12.6812200321       40.6199327635       82.0863779754
H                14.7792371809       37.8226193307       83.9072521523
