 537 
 
N                24.9565939085       41.0916222071       15.8989863819
C                24.4442411552       39.8191821916       16.4026636065
C                23.8801885755       39.0101667093       15.2361636205
O                23.2899235937       39.5915685938       14.3289701681
C                23.2977124680       40.1683271092       17.3433414364
C                22.7606571747       38.9234763315       18.1054514328
C                21.8383444820       39.3928734884       19.2250095920
O                22.3009535524       40.1497589190       20.1262724070
O                20.6638906134       38.9885369734       19.2029856094
H                24.3556203081       41.9000507834       16.0214027926
H                25.2457187156       39.2719482911       16.9010673611
H                23.6705666956       40.8609451705       18.0980542424
H                22.4877635032       40.6370069233       16.7820574404
H                22.2082080781       38.2554152327       17.4483627216
H                23.5960746902       38.3793374146       18.5478161804
N                24.0324754896       37.6774804839       15.3474980407
C                23.4383210420       36.8128636978       14.3327066516
C                22.5893055194       35.7285311951       14.9760255158
O                22.8228273045       35.2497460805       16.0745378283
C                24.5728776187       36.1203966562       13.5587542612
C                25.3969368905       37.1382489893       12.7873544717
C                26.6736093463       36.5045116632       12.2457491295
O                27.1185772518       35.4403464595       12.6902520111
N                27.2200658383       37.1585589598       11.2398103653
H                24.6127473354       37.2691022292       16.0830628944
H                22.8384486285       37.4396391982       13.6714704764
H                25.2077705346       35.5946404186       14.2696036114
H                24.1576709278       35.3858286230       12.8685237215
H                24.8343361324       37.5654314612       11.9581120075
H                25.7002133389       37.9597248153       13.4410970921
H                26.8676758848       38.0625938870       10.9387763252
H                28.0982789917       36.8487960128       10.8483004546
N                21.5649378662       35.2721669645       14.2313040323
C                20.7984302673       34.1142789409       14.6720622890
C                20.6760626044       33.1015585233       13.5417959169
O                20.7098684508       33.4682151860       12.3647292980
C                19.4229219192       34.5780599023       15.2069671967
O                18.8800034582       33.4965864567       15.9572035815
C                18.5544540718       35.0313448375       14.0638880830
H                21.3821028449       35.6529021461       13.3075911344
H                21.3371966233       33.6634596285       15.5110075571
H                19.6217059904       35.4288423752       15.8791458447
H                17.9256796584       33.6503834194       16.1461235814
H                17.6299890866       35.4629676788       14.4465361650
H                19.0803018185       35.7800754164       13.4794214130
H                18.3025417954       34.1869143973       13.4272947455
N                20.4177409550       31.8344781354       13.9013147140
C                20.0795718531       30.7886315263       12.9232822362
C                18.5527151684       30.6113589867       12.8837807443
O                17.8964705233       30.3483318558       13.8952970425
C                20.6984897575       29.4914741733       13.4317963186
C                20.3972462871       28.3064980092       12.5425853252
C                20.8705027751       28.3099803335       11.2492766141
C                19.7076521812       27.1937920631       13.0454446856
C                20.5095814046       27.2760716171       10.3976624313
C                19.3662641059       26.1449442427       12.1900961729
C                19.7447731641       26.2139783315       10.8660798864
H                20.2344926637       31.6002703086       14.8700379614
H                20.4540145216       31.0898913145       11.9452695853
H                21.7819579876       29.6245683408       13.5020024595
H                20.3136614003       29.2991050246       14.4332317405
H                21.4547911677       29.1398176868       10.8831333006
H                19.4320295366       27.1813085056       14.0883041486
H                20.8396358723       27.2794465152        9.3718849615
H                18.8245073276       25.2892288320       12.5634383022
H                19.4841680218       25.4137861919       10.1886633752
N                18.0132290326       30.7496302720       11.6555217178
C                16.5772924015       30.5569024890       11.4220348397
C                16.5076277308       29.4759182724       10.3729241462
O                17.2197140468       29.5522388147        9.3779182281
C                15.9021162973       31.7886230696       10.8408619756
C                16.1059609779       33.0907697141       11.6772386166
C                14.3844934549       31.5121637205       10.6284517515
C                15.5265093157       32.9221289123       13.1093072377
H                18.6091118528       30.8457612421       10.8404967779
H                16.1150877751       30.2428370241       12.3571079270
H                16.3600216144       31.9755611038        9.8609169834
H                17.1728834616       33.3064360755       11.7390207925
H                15.6047351505       33.9134514271       11.1703607530
H                13.8781804565       32.4355167252       10.3659856373
H                14.2391984921       30.7847947397        9.8339023159
H                13.9560621596       31.1031344099       11.5382089214
H                15.5842628157       33.8681532030       13.6402310210
H                14.4882657045       32.6186472101       13.0650213152
H                16.1020581801       32.1885310213       13.6624467923
N                21.1651461241       32.4117211558        8.1538305335
C                21.7172594179       33.2161110350        9.2287686981
C                21.2692676088       34.6530690768        8.9517267533
O                21.4821844975       35.1430820709        7.8373187015
C                23.2587975404       33.1826698394        9.2568938048
C                23.7299106519       34.0319198084       10.4597719407
C                23.7703020960       31.7387744631        9.4524070546
H                21.3520223990       32.6997615902        7.1998231923
H                21.3084607146       32.8506944763       10.1724466739
H                23.6398033439       33.5920039463        8.3208394937
H                24.8114217968       33.9907237915       10.5539234832
H                23.4335525647       35.0706932510       10.3406418699
H                23.2794733692       33.6460923370       11.3702126531
H                24.8554516930       31.7308731405        9.4878356099
H                23.3761413653       31.3407439849       10.3825057483
H                23.4430420973       31.0900178979        8.6435877857
N                20.5812829473       35.2717242743        9.9259163449
C                20.1698780602       36.7092566983        9.8070068280
C                20.9685458261       37.5093245253       10.8369236384
O                21.2647723009       37.0247333213       11.9277508302
C                18.6450458461       36.8299250863       10.1045630669
C                17.8477291171       36.2375829038        8.9824890049
C                17.3681243951       34.9528523565        8.8369135951
C                17.3406782121       36.9645628759        7.8530266908
N                16.6545036316       34.8236772073        7.6629755545
C                16.6013364488       36.0431322148        7.0767007837
C                17.4072555681       38.3140937714        7.4428907719
C                15.9426298153       36.4132661647        5.9211385093
C                16.7919335467       38.6464546372        6.2610199839
C                16.0521311745       37.7107856832        5.5234681801
H                20.5186170501       34.8459391909       10.8432974598
H                20.3943712803       37.0394326412        8.7922884018
H                18.4335382653       36.3148259063       11.0420542498
H                18.3943056227       37.8859702617       10.2087404817
H                17.5502573247       34.1030337304        9.4644580690
H                16.2455960089       33.9785829797        7.2914549384
H                17.9686435623       39.0446254582        8.0018908496
H                15.3807059566       35.6879677756        5.3496398462
H                16.8435040151       39.6678478835        5.9115041036
H                15.5701666763       38.0428110520        4.6132643454
N                19.7240032036       42.7487482132       18.2010544549
C                18.7453937349       41.9292553740       18.9172212670
C                18.0525700470       40.9115206500       18.0228162759
O                16.9345794742       40.4638080700       18.3345705839
C                17.6136186260       42.7068820529       19.6227299505
C                16.8826248509       41.9193205145       20.7194567540
O                17.6044329070       41.3948595582       21.6337788362
O                15.6397770796       41.8312998142       20.7108313273
H                20.6547428075       42.8454655694       18.6115819119
H                19.3069990069       41.3641364070       19.6697976796
H                18.0504232408       43.5769983824       20.1236485264
H                16.8712662625       43.0441301027       18.9021344754
N                18.7590034185       40.4404952898       17.0114220467
C                18.0633357248       39.5541248610       16.0459185575
C                17.7206430848       38.2161133217       16.6953161099
O                16.7758151670       37.5135855107       16.2625244716
C                18.9013752127       39.4051694664       14.7569686979
C                20.2119255808       38.6820988201       15.0599755357
C                18.0070405858       38.7067337821       13.7011476173
H                19.6109832785       40.8906251218       16.7073147607
H                17.1048489323       40.0234234184       15.7869785264
H                19.1323194083       40.4121980878       14.4022579136
H                20.7707618831       38.5347462524       14.1396309305
H                20.8193144531       39.2691567605       15.7391004902
H                20.0283220340       37.7061814627       15.5033642316
H                18.6007807998       38.4641086489       12.8234214609
H                17.5845688757       37.7960718301       14.1069226380
H                17.2009812875       39.3707163651       13.4082008383
N                18.4559599919       37.7542881843       17.7068675423
C                18.0534146636       36.4715619535       18.2739511848
C                16.6792796970       36.6254547201       18.9493454955
O                15.7736386515       35.8462583193       18.6389886091
C                19.1044632512       35.9729256150       19.3354000322
C                18.5615498269       34.7878734540       20.1125132356
C                20.3999645438       35.5701876666       18.6101453489
H                19.2211970890       38.2695615505       18.1334467278
H                17.9449815087       35.7396773144       17.4713137880
H                19.3187413411       36.8079682509       20.0035181493
H                19.3158660880       34.4236717036       20.8043722888
H                17.6624136599       35.0545488192       20.6596530953
H                18.3074308091       33.9722297951       19.4385714398
H                21.1546434461       35.2727420859       19.3315359683
H                20.2215011017       34.7260644792       17.9504846360
H                20.7974452859       36.3963407665       18.0286345759
N                16.5732160088       37.5655184426       19.9012175957
C                15.2968097508       37.6852775371       20.6016572520
C                14.1683708795       38.1654003745       19.7147194921
O                13.0485160501       37.6411415461       19.8155577845
C                15.4167889030       38.6096014725       21.8200980760
C                16.3456443916       37.9762047679       22.8495128032
C                15.7810622199       36.7337005292       23.5592605802
C                16.8375110770       35.6520928543       23.7217439474
N                18.1240337812       36.2951433421       24.0881979563
H                17.3461500017       38.1806694973       20.1454384521
H                15.0096484728       36.6777460352       20.9286407580
H                15.8044816426       39.5730051099       21.4971512262
H                14.4219303048       38.7662995014       22.2373233983
H                17.2428011365       37.7238741393       22.2918814853
H                16.5955590276       38.7379125763       23.5822777105
H                15.4112696286       37.0327690207       24.5392352116
H                14.9286524163       36.3317329559       23.0157471820
H                16.5460760290       34.9438336137       24.4950858409
H                16.9806543483       35.0854058731       22.8018150410
H                18.8677302678       35.6381998271       24.4042446489
H                18.5369451307       36.7670115120       23.2753224370
H                17.9760237360       37.0507935369       24.7991654728
N                14.0424843161       37.8101800174       16.5654680625
C                13.6956888846       36.7511491624       15.6270137082
C                12.7194312964       35.7481506580       16.2537200452
O                11.7911852090       35.2486021815       15.5950613477
H                15.0352123462       37.9445954340       16.7260555752
H                13.2219238962       37.1604671151       14.7304929405
H                14.6161683421       36.2324839826       15.3567179203
N                12.9189637747       35.4574233550       17.5416325468
C                11.9773884216       34.5332402231       18.1822325064
C                10.5896438804       35.1563001813       18.2582292726
O                 9.5676490254       34.4681788095       18.1825082513
C                12.4901326309       34.2379041965       19.6218649753
C                13.7301534669       33.3574655989       19.5215866124
C                13.4954775742       31.8694458736       19.3864124477
N                13.0762356020       31.3041716267       20.6634748940
C                13.0383627638       30.0027148849       20.9257321146
N                13.6054260252       29.1095566104       20.1272425329
N                12.3751112182       29.5787002138       22.0076102563
H                13.7385773004       35.7715078812       18.0467861580
H                11.9073080802       33.6169985478       17.5895033221
H                12.7173053547       35.1876697099       20.0996456652
H                11.6959249270       33.7456319546       20.1799591172
H                14.3304842235       33.6811649209       18.6748377947
H                14.3464762813       33.5104967433       20.4094253502
H                12.7309885209       31.6583145929       18.6319738101
H                14.4325682401       31.4062274820       19.0789119820
H                12.5169865801       31.9195460044       21.2390538825
H                14.1209538655       29.3468779687       19.2874666496
H                13.5977549413       28.1381036363       20.3919788504
H                12.0309566414       30.2424570609       22.6814625616
H                12.4264483821       28.6140909799       22.2922036013
N                12.4718784339       27.1035066071       12.9056588331
C                13.2754955040       27.0999124614       14.1029664889
C                13.9701455445       28.4576637461       14.2136000032
O                14.3935077004       29.0104843555       13.1864549132
C                14.4124446933       26.0419821259       13.9342498042
C                15.4601046970       26.1820232114       14.9765700459
N                15.3826219317       25.6061296677       16.2136028869
C                16.6108979935       26.9014565233       14.8891891641
C                16.4672636271       25.9829991038       16.8548668479
N                17.2412121098       26.7811459315       16.0817598064
H                12.9374513256       27.4221518622       12.0629907913
H                12.6526326390       26.8919481321       14.9738879115
H                13.9756796690       25.0464862710       13.9769246036
H                14.8719653787       26.2056852121       12.9604357963
H                17.0146745534       27.4944809983       14.0929885519
H                16.7280627064       25.7018375699       17.8547635256
H                18.1498311922       27.1697392964       16.3280128831
N                14.1586356753       28.9793355524       15.4358310130
C                15.0575845062       30.1006538507       15.5909771982
C                15.8630734817       29.8423804290       16.8566752234
O                15.3346175921       29.3154402369       17.8379299777
H                13.7556617938       28.5411607872       16.2652915568
H                15.7155868668       30.1624632381       14.7249828243
H                14.5188712745       31.0458229540       15.7111802539
N                17.1334113756       30.2293494002       16.8604327960
C                17.9774081081       30.0670484250       18.0326433139
C                17.3028094875       30.7293460734       19.2145073220
O                16.6707035720       31.7676784216       19.0861933352
C                19.3291441188       30.7730658845       17.7877832580
O                19.9015068930       30.2932401250       16.5929142327
H                17.5881121985       30.5256055855       16.0029831931
H                18.1502883935       29.0031952658       18.2391192536
H                19.1701231588       31.8435860095       17.6365454908
H                19.9840829025       30.6010616287       18.6535216011
H                19.9032736799       29.3130108808       16.6070710898
N                17.5110796968       30.1222690071       20.3864316587
C                16.8671146976       30.6577241383       21.5774308332
C                17.7794050503       31.5323542499       22.4249717005
O                17.2970648966       32.1874569859       23.3435953841
C                16.3239075503       29.5291338546       22.4940760785
C                17.3838175484       28.5276451730       23.0260678877
O                18.6014381069       28.7793039850       22.8647909012
O                16.9367983906       27.5203854143       23.6131008884
H                17.9480071923       29.2095100513       20.4374969487
H                16.0414419893       31.2944416308       21.2425348554
H                15.8621532735       29.9940483381       23.3645637277
H                15.5854968453       28.9382140266       21.9554463247
N                19.0304559458       31.6855546319       22.0521754726
C                19.9360677464       32.5452340344       22.8027638955
C                21.1322647864       32.8934779991       21.9444833584
O                21.3888101969       32.2350552565       20.9328389272
C                20.4444552401       31.8524606457       24.0807243997
O                21.3619916343       30.8462702171       23.7305647742
H                19.4620948145       31.0709203919       21.3780005411
H                19.3722079136       33.4324588127       23.1012410780
H                20.9342643818       32.6015652076       24.7177100284
H                19.5877089904       31.4214532765       24.6145956039
H                21.6576123899       30.3436089842       24.5480227414
N                21.8848152600       33.9512381731       22.3329511509
C                23.0592734169       34.2922862020       21.5163302950
C                24.0567238766       33.1402180751       21.4553571259
O                24.6272072505       32.8320377825       20.3998652094
C                23.6659016763       35.5882132745       22.0931811447
C                25.1189334596       35.7677054942       21.6777039914
C                22.7961208044       36.7850468153       21.6899073131
H                21.6451593896       34.5104059971       23.1526155474
H                22.7517347812       34.4554657288       20.4771175018
H                23.6375799751       35.4763294170       23.1832679147
H                25.4745533955       36.7455621974       21.9873956981
H                25.7389524633       35.0034375233       22.1403657996
H                25.1875257786       35.6800341021       20.5963256695
H                23.1817643030       37.6968686772       22.1335454552
H                22.8137191695       36.9053201323       20.6088712497
H                21.7667222942       36.6374128720       21.9947733102
N                24.3255606430       32.4939945895       22.6261441883
C                25.2881822839       31.4210984569       22.6089639008
C                24.8017412079       30.2099081524       21.7932434084
O                25.5924373948       29.5943834512       21.0617184841
C                25.7218518043       30.9918548645       24.0139520226
C                26.4570284176       32.1444862231       24.7033038282
C                27.7807291423       32.5304665274       24.0206729347
O                28.5172134929       31.6135756593       23.6093581038
O                28.0117261578       33.7459797685       23.7864772272
H                23.8783402826       32.7743700673       23.4976501003
H                26.1844731031       31.7825909370       22.0782676830
H                24.8553910884       30.6743915297       24.5994247548
H                26.3957441403       30.1392438300       23.9280502148
H                25.8176872884       33.0269197215       24.7489356386
H                26.6979624664       31.8500752896       25.7312264736
N                23.5088855197       29.9338289692       21.8655575347
C                23.0203110302       28.8232492283       21.0945674434
C                23.0874544318       29.1474677285       19.5931364670
O                23.3352521178       28.2560313630       18.7691796953
C                21.6551517307       28.3526175526       21.5435118916
C                21.8182823248       27.4361630950       22.7906973917
O                22.8856658173       26.8708024210       23.0034154677
N                20.7099112162       27.2591520037       23.4923188227
H                22.8887864950       30.3897723324       22.5259830728
H                23.7111674366       27.9747861755       21.2413390819
H                21.0088662156       29.1855876325       21.8120316860
H                21.1792635596       27.7658038590       20.7556224110
H                20.8289848221       26.9221098044       24.4377274907
H                19.8887006643       27.8671092550       23.3173733511
N                22.8184916254       30.4071339632       19.2480016552
C                22.8970391733       30.7731621670       17.8401258533
C                24.3035841710       30.5471763306       17.3389095433
O                24.5322702479       30.0393939412       16.2635621632
C                22.4969640381       32.2452470032       17.7185275824
H                22.5135371171       31.0992748832       19.9224745142
H                22.2278555790       30.1359474485       17.2488735496
H                22.6548545249       32.5863072736       16.6998661402
H                21.4580780020       32.3785625798       17.9911970665
H                23.1202657709       32.8403689735       18.3820416988
N                25.3391296371       30.8995139416       18.1317259426
C                26.6658369031       30.7117740462       17.6046462878
C                26.9700598631       29.2169111577       17.3409693034
O                27.6335684056       28.8595282611       16.3478050959
C                27.7172079235       31.2636173529       18.5956394265
C                27.5845039398       32.7749244775       18.7274460730
C                28.6258571396       33.2529050503       19.7645289505
C                28.4907729664       34.7278088173       20.0584344814
N                29.1705493039       35.0400743318       21.3448139465
H                25.1784589438       31.4243877213       18.9830796960
H                26.7606596001       31.2220657472       16.6376403940
H                27.5710894021       30.7792880986       19.5599655890
H                28.7076918660       31.0039707832       18.2216542491
H                27.7736039142       33.2513355140       17.7673000582
H                26.5859392119       33.0496959054       19.0634023890
H                28.4613146784       32.6920254241       20.6874278207
H                29.6231848865       33.0121134863       19.3988810569
H                28.9391432361       35.3277218887       19.2680103623
H                27.4378193032       34.9936987400       20.1532210603
H                29.0569690395       36.0620744787       21.5050717213
H                28.7450114946       34.5269384223       22.1556066522
H                30.1614492714       34.7870254654       21.3042292373
N                26.5202815316       28.3625833665       18.2911361801
C                26.7026136639       26.9347218806       18.1162232078
C                25.9331771992       26.4513740951       16.9078961262
O                26.4385031257       25.6301882228       16.1494815844
C                26.2572364431       26.0904478542       19.3160463982
C                27.1313481157       26.4315464280       20.5273631528
C                26.5899848545       25.8609937243       21.8375713183
C                27.5067706835       26.3293536417       22.9799053044
N                26.9136806060       26.0757994024       24.3179293961
H                26.0006382187       28.7027270280       19.0904611532
H                27.7660049537       26.7473206462       17.9179518333
H                25.2068979394       26.3031699069       19.5276538385
H                26.3489027177       25.0364585595       19.0569039205
H                28.1324236195       26.0414122972       20.3505172433
H                27.2014253495       27.5118170138       20.6246566142
H                25.5755739856       26.2284461718       22.0080750943
H                26.5555187726       24.7746819798       21.7830481607
H                28.4579360891       25.8020874018       22.9201142834
H                27.6944122799       27.3987732467       22.8685789746
H                27.5468704157       26.3900889851       25.0643560636
H                26.0114616673       26.5682705338       24.4386704925
H                26.7184186557       25.0720652666       24.4364145545
N                24.7122022606       26.9444468762       16.7382508705
C                23.9495069311       26.4405298545       15.5789566447
C                24.5090689748       26.9031944239       14.2350469665
O                24.5636771699       26.1737427033       13.2266269658
C                22.4748616807       26.9215094749       15.6929636849
C                21.8086894675       26.1971539829       16.8561041651
C                20.4200078871       26.6732372826       17.2044572778
O                19.8845094941       27.5631715416       16.5219193072
O                19.8587480631       26.1292436572       18.1873457934
H                24.2512387231       27.5449572420       17.4094042662
H                23.9795025273       25.3441538002       15.5895003092
H                22.4656676776       28.0002104540       15.8563270396
H                21.9473157388       26.7112785800       14.7605754426
H                21.7300000581       25.1257328576       16.6444688154
H                22.4069050862       26.2986426106       17.7643133274
N                24.9699394564       28.1509248733       14.1984250134
C                25.5846448596       28.6770743900       12.9975605543
C                26.8257960930       27.8258567108       12.6029488812
O                27.0703303504       27.5808391082       11.4346164318
C                25.9329970283       30.1723469901       13.1565172294
C                24.6437881424       31.0046093523       13.2544811904
C                26.8382812905       30.6702260553       12.0245769119
C                24.9249966593       32.4372047436       13.7690420232
H                24.8998653868       28.7648226854       15.0048940437
H                24.8786892983       28.5550431909       12.1623025066
H                26.4768122993       30.2670421357       14.1027575646
H                24.1674073366       31.0505175228       12.2766442836
H                23.9571770569       30.5236734309       13.9510330227
H                27.0544180507       31.7247061070       12.1506730836
H                27.7827086596       30.1343839409       12.0231841126
H                26.3586813480       30.5093244569       11.0622605600
H                23.9854561865       32.9773912024       13.8663724013
H                25.3904299439       32.3800431530       14.7480444885
H                25.5758668717       32.9785857143       13.0920585145
O                24.8823610914       40.0663102489       20.8225788123
H                24.9873965021       39.8916092042       21.7811450569
H                23.9274238994       40.0775930929       20.6257755532
O                18.7691042271       38.9266247025       21.1186651803
H                19.5128510082       39.0426243784       20.4865278091
H                18.4028360088       39.8075053794       21.3183028633
O                22.3024542198       29.5397871239       25.9324902109
H                23.0665168877       28.5611459292       25.9508149825
H                22.8451042117       30.2051903082       26.3569341691
O                24.4116580733       35.2067088383       18.4291982720
H                25.1036597579       35.7630724809       18.0336628136
H                23.7471600237       35.1139641814       17.7418679645
O                18.3336489367       27.3070469333       20.0176375184
H                18.8741204459       26.8587805020       19.3285075872
H                18.6128518338       26.9362740644       20.8567183898
O                16.3010830981       33.5828286135       16.9417801576
H                16.4283646016       32.8730619855       17.5929326813
H                16.1075246757       34.3729796593       17.4746548909
O                23.9285288041       27.5822320835       25.9727119114
O                28.2319461183       29.3453039615       21.9449871153
H                28.4669994944       30.0937924989       22.5150682189
H                27.3759363111       29.5680462828       21.5527438277
O                28.4554390871       37.7781952208       21.0476243490
H                29.1685508039       38.4037678841       20.9139963568
H                27.7629145699       38.0020171502       20.3980270600
O                23.3790025036       33.5445092686       25.1343096944
H                23.9034390990       34.2747928826       25.5154583708
H                23.3548449045       32.8406747941       25.7940911375
O                20.7267306370       35.6569321869       24.2350842564
H                20.7947583369       36.6188099553       24.1353369602
H                20.8322035211       35.4367868023       25.1689132003
O                19.5606699642       34.6561812509       26.4101953062
H                19.7198293057       34.1851754382       27.2354420490
H                18.6129131566       34.7839018196       26.3392631395
O                26.0449184516       36.9068024460       17.2877871448
H                26.8175579299       36.8255102441       16.7093820089
H                26.3058122795       37.5129320574       18.0143697625
O                19.4771788040       25.3858130255       25.7904996023
H                19.8999214658       24.6695020411       25.2991205389
H                18.9216388549       25.8801799243       25.1761498505
O                26.6870673052       38.7016525095       19.1542856151
H                27.1542097849       39.4577743309       18.7822719659
H                25.9869043696       39.0884295273       19.7263790680
O                19.9395508553       38.2849403456       23.4458534149
H                19.4645693811       38.4775848005       22.6132217929
H                20.6600418900       38.9440076600       23.4168138215
O                25.4448440947       39.6266083079       23.3283291170
H                26.2267238896       39.0020174993       23.3606071645
H                24.7920624127       39.2964104665       23.9533174049
O                20.9470193903       27.1921051328       27.1625110098
H                22.1765788600       27.0197280496       27.1441862382
H                20.6420883249       26.3894548623       26.7380670516
O                27.1290365695       35.9532334718       25.0466495423
H                27.4953174425       35.1545591835       24.6255214027
H                26.2454186883       35.7146028422       25.3708219814
O                23.4553490768       26.7626607545       27.1222893093
O                15.1451999727       27.0083628863       26.6848059145
H                15.6326826426       27.1060297597       25.8595591717
H                14.5607123118       27.7652840740       26.7557380812
O                23.1318287783       31.7158524648       27.3045016184
H                23.9635436187       31.7079020726       27.7958806818
H                22.4259245105       31.9497807241       27.9188513702
O                27.5595521682       38.0978612627       23.4999113602
H                27.9354446085       37.8369665862       22.6401606467
H                27.4849374152       37.2933156945       24.0372177267
O                24.3336697182       35.2855170114       28.9526090058
H                24.5224774081       34.3475412584       28.8535521421
H                23.3866932994       35.3632240341       29.1180792774
O                24.6732638533       35.6341414935       26.1273728721
H                24.7509879676       35.6110874128       27.0977903320
H                24.2847681088       36.4896167424       25.9126635006
N                29.3229904799       34.2557581232       29.9804643390
C                28.8643810909       34.5587390742       28.6460969580
C                28.8852721931       36.0535632456       28.3738066540
O                28.7868616015       36.4970215421       27.2336208789
C                27.4754152519       33.9874650555       28.3579812163
C                27.4215701879       32.4287878300       28.3300331999
O                28.4634552287       31.7834713777       28.1152490528
O                26.2879534371       31.9382884742       28.5509073318
H                28.6738640633       33.8234521938       30.6301633570
H                29.5684641143       34.1150941532       27.9264399468
H                26.7604417814       34.3549617738       29.0924248509
H                27.1820148325       34.3255239863       27.3623100437
N                17.4527310808       28.9528550053       31.0428257481
C                17.1610327794       27.7387324787       30.2922373252
C                17.4575431792       26.5286734718       31.1505178623
O                18.1560267060       26.6357100003       32.1621622935
C                18.0151858799       27.6448426885       29.0142768210
O                19.3453405492       27.3533280766       29.3644364465
H                18.2008393809       28.8863618997       31.7170006796
H                16.1107436661       27.7834370289       29.9937601427
H                17.6113468700       26.8461032479       28.3772911923
H                17.9600760860       28.6023103899       28.4804056168
H                19.9284683241       27.3486436088       28.5469784793
N                21.2089847920       25.9502840565       31.2294436860
C                21.9264878158       26.9286918466       32.0004337774
C                21.6792780590       26.7084347050       33.5018647537
O                22.5751834404       26.9395537966       34.3258215254
C                21.6514871531       28.3462703179       31.5514893291
C                22.5267252918       28.6632223081       30.3043038290
O                23.5500337440       28.0215214251       30.0915857530
N                22.1258358393       29.7116053906       29.6026823980
H                20.5040767445       26.2593338832       30.5690181479
H                23.0067065770       26.7546241746       31.8536621388
H                20.6069711457       28.4894849522       31.2829695347
H                21.9217386335       29.0518084103       32.3393788097
H                22.4772597490       29.7770057227       28.6572737300
H                21.1887241394       30.1188159647       29.7776278696
H                25.7275714660       41.2919940033       16.3178476347
H                15.8835983761       28.7035643088       10.4914851822
H                21.4854249407       31.5726185015        8.2115212190
H                21.2591447226       38.4432030391       10.6285412911
H                19.8626648614       42.4035365631       17.3815412694
H                14.3288510847       38.8991925915       19.0545717162
H                13.7264369071       38.5961887366       16.2616517882
H                10.4909606425       36.1448882552       18.3720503543
H                12.1851984028       26.2678874135       12.7337427981
H                27.4353200349       27.4718479838       13.3122854624
H                17.6871354850       29.6091281576       30.4732995198
H                17.0867090943       25.6345677923       30.8994061037
H                21.7892606000       25.4761150541       30.7310023717
H                20.7908228911       26.3765781505       33.8189115040
H                30.0176416929       33.6851644029       29.9370765671
H                28.9807512122       36.6986068179       29.1319639905
