 252 
 
N               -12.3798354204       81.9497824191        5.2278778242
C               -11.7117178198       80.7920058747        4.7045027148
C               -11.7093043386       80.7136114858        3.1761219330
O               -10.6430156949       80.6309279654        2.5701936907
C               -12.3626890257       79.5024240029        5.2174003555
C               -11.3799523393       78.3211226453        5.0681230690
C               -10.9467155322       77.8755351085        6.4778635144
C               -11.9393429991       77.1766654734        4.2109454478
H               -12.7643607266       81.8506693508        6.1552443954
H               -10.6577830795       80.8125400162        5.0192629333
H               -12.6224873775       79.6241651533        6.2704163447
H               -13.2927530247       79.2876513900        4.6928899082
H               -10.4755707020       78.6712851856        4.5537938980
H               -10.1927617161       77.0917534220        6.4220356283
H               -10.5134261679       78.7114071959        7.0196735594
H               -11.7996751754       77.4978054127        7.0364046936
H               -11.1864005411       76.3997794472        4.0785939873
H               -12.8128932864       76.7385603017        4.6865746766
H               -12.2127860231       77.5441030415        3.2243658293
N                -7.7129992834       79.9914978753       11.3833829669
C                -8.9899301400       79.6755877983       10.8210601017
C                -9.3626546269       78.2065120145       10.8815063467
O               -10.2388095308       77.8710967534       11.6796500239
C                -9.0350258516       80.1742245712        9.3936835587
C                -8.8230579687       81.6888797850        9.3897935507
C               -10.0437953090       82.4894332712        9.9292993354
N               -10.5091036481       83.5058083182        8.9786710662
C               -11.7266526999       83.7419934724        8.4860633937
N               -12.8158214952       83.1874661704        9.0158898947
N               -11.8416518921       84.6591493749        7.5347822635
H                -6.9712113485       80.0758280642       10.7009634404
H                -9.7469454360       80.1777112741       11.4402712728
H                -8.2593004629       79.6766267098        8.8073683257
H               -10.0044246498       79.9180014189        8.9634743523
H                -7.9269639507       81.9190380838        9.9638387984
H                -8.6384153481       81.9917049645        8.3565100157
H               -10.8572352636       81.7969228199       10.1359586327
H                -9.7835696292       82.9751465906       10.8713423784
H                -9.7580508416       84.0347741351        8.5500859773
H               -12.7561948411       82.3784711201        9.6140367073
H               -13.7280161607       83.2856576423        8.5965265002
H               -11.0464013906       85.1961719669        7.2183075337
H               -12.7552553100       85.0179642569        7.3024228078
N                -8.8355890316       77.3903610298        9.9622131490
C                -9.2510032739       75.9944630093        9.8595677042
C                -9.7010792832       75.4168033363       11.2422097678
O               -10.6775120851       74.6730930987       11.3191466340
C                -8.1963710083       75.0181566444        9.2738192376
C                -7.6976236664       75.1007603006        7.7893046112
C                -8.5066807362       74.4100192902        6.6535158826
N                -8.9048079192       72.9724674135        6.7564106883
C                -9.2108024454       72.1054868950        5.7540729637
N                -8.6954833718       72.2136146146        4.5344043422
N               -10.0666092409       71.0990226547        5.9929047802
H                -8.0036624506       77.6637878254        9.4492248905
H               -10.1496932636       75.9687455211        9.2232361185
H                -7.3151965342       75.0946258679        9.9140419990
H                -8.6043639056       74.0179302620        9.4373630623
H                -7.6209064581       76.1464086525        7.4952313737
H                -6.6869086093       74.6910999852        7.7816501038
H                -9.4425715267       74.9703987763        6.5373558506
H                -7.9256541510       74.5442415058        5.7416015189
H                -9.3851518270       72.7795423160        7.6280161438
H                -8.1662202747       73.0440734490        4.2756473751
H                -8.9947816083       71.6029760209        3.7941126474
H               -10.3571203468       70.9370161231        6.9457270225
H                -9.9696431739       70.2261584589        5.4737209566
N                -8.9492028606       75.7120784947       12.2999117886
C                -9.4302043205       75.3800183161       13.6193336528
C               -10.7414810473       76.1115547518       13.9588306867
O               -11.7771533592       75.4614817092       13.8838505319
C                -8.2963831981       75.5198426305       14.6271046379
C                -7.5116608535       74.2012258064       14.6998447163
C                -5.9812564922       74.4518760874       14.8413511854
O                -5.6000831584       74.8431899753       15.9674543703
O                -5.2881412770       74.2671097905       13.8144850553
H                -8.1798611961       76.3659174293       12.2306650476
H                -9.7477003100       74.3256083376       13.5843001990
H                -7.6309907016       76.3324822165       14.3193603498
H                -8.6797473714       75.7766119005       15.6149622934
H                -7.8381802801       73.6003478040       15.5500222644
H                -7.6459301207       73.6228098247       13.7839959741
N               -10.6914978373       77.3836405950       14.3595973175
C               -11.8512901334       78.1660227281       14.7522581923
C               -13.1197807254       77.8030899770       13.9955388105
O               -14.1917206513       77.7884300684       14.6046608621
C               -11.6713702176       79.6587206301       14.4458426000
C               -10.5521287119       80.3416053966       15.2190823409
C               -10.0836348101       81.6323823524       14.4679283795
O               -10.9375436299       82.1655983201       13.7335011653
O                -8.9127408430       82.0179354478       14.6664022638
H                -9.8293674439       77.9001620978       14.2485908661
H               -12.0449574784       78.0192233460       15.8250819953
H               -11.4537161068       79.7500807883       13.3799012824
H               -12.6159224059       80.1741633845       14.6295106663
H               -10.8695243185       80.6253924659       16.2253704794
H                -9.6671585818       79.7091269861       15.3005516157
N               -12.9876616450       77.6268213176       12.6736443673
C               -14.1235712913       77.3232740440       11.8115580120
C               -14.4900687908       75.8151061258       11.9062954539
O               -15.6009292649       75.5047208677       12.3589377289
C               -13.9144785639       77.9051138386       10.3886376628
C               -15.1583529832       78.5202561309        9.6905951773
C               -14.9353588122       79.6980361807        8.5808435758
O               -15.3719909728       79.5318274486        7.4241058471
O               -14.3708426904       80.7284321417        8.9964035884
H               -12.0587130522       77.6429293126       12.2677099594
H               -14.9841026392       77.8278420579       12.2729541532
H               -13.1764491786       78.7019731795       10.4987011126
H               -13.4887236525       77.1278555482        9.7519044006
H               -15.7560671957       77.7334241262        9.2231808213
H               -15.7799662931       78.9975624381       10.4544053968
N               -13.6141231020       74.8693001010       11.5160215361
C               -14.0535886698       73.4993925443       11.6899324944
C               -14.7271966427       73.2421731425       13.0431096872
O               -15.7182295381       72.5341672999       13.1371523354
C               -12.9741196515       72.4556515958       11.5330488582
O               -13.6132788638       71.3848331672       10.8811161986
H               -12.6190080540       75.0466612822       11.4230475976
H               -14.8194487918       73.2864042805       10.9284135867
H               -12.1469126769       72.8501892070       10.9284832515
H               -12.5819655394       72.1659916372       12.5140950514
H               -13.0827184123       70.5770752461       10.9831994736
N               -14.0911589870       73.7836310676       14.0905891869
C               -14.7771062384       74.0505480282       15.3450825982
C               -16.2586284681       74.3778801966       15.2585321145
O               -17.0954270434       73.5111576332       15.5081017022
C               -14.1303468840       75.1753645188       16.1523095750
H               -13.3170918385       74.4142574254       13.9077050512
H               -14.7435716772       73.1198703124       15.9364680999
H               -14.6786720818       75.3205833843       17.0809993951
H               -13.1070208605       74.9045410127       16.4063281414
H               -14.1093820259       76.1052743161       15.6039971472
N               -16.6303890571       75.6535611097       15.1315799425
C               -17.9962881069       75.9025226807       15.5760110772
C               -18.9825259800       75.0453116059       14.7527584431
O               -20.0617655086       74.6854956488       15.2158191724
C               -18.3466231084       77.3749852062       15.5527085060
H               -15.9931648482       76.4190465029       14.9617287941
H               -18.1000630576       75.5313705736       16.6084047077
H               -19.3540235299       77.5099432837       15.9320328855
H               -17.6492210610       77.9258403770       16.1778910210
H               -18.2898398877       77.7558598459       14.5347681600
N               -18.5560062390       74.7792062103       13.5004992520
C               -19.2528892893       73.9115270107       12.5495520792
C               -19.6923020277       72.6137815706       13.2453843080
O               -20.8481160625       72.3525009754       13.5857567476
C               -18.3378217408       73.5986327597       11.3659432290
H               -17.6214529833       75.0645300836       13.2341327692
H               -20.1678225588       74.4192160399       12.2124150606
H               -18.7727998667       72.8067332900       10.7623528162
H               -18.2222110665       74.4872718367       10.7481501386
H               -17.3514796991       73.2953969292       11.7027843647
N               -18.6822656084       71.7792584154       13.4155539560
C               -18.7944718398       70.5287619669       14.1192351174
C               -19.7975541045       70.5937785691       15.2657188715
O               -20.6125013081       69.6993350908       15.4501209924
C               -17.3823201613       70.2466622307       14.6334132763
H               -17.7291822717       72.0678886695       13.2253575266
H               -19.1300053733       69.7310760851       13.4413335932
H               -17.3631975729       69.3307724081       15.2182617965
H               -16.6977873566       70.1389228237       13.7964073218
H               -17.0472826295       71.0700640135       15.2579811959
N               -19.5972172379       71.6561113230       16.0394554115
C               -20.3009017608       71.9501976178       17.2451921281
C               -21.7934344967       72.2041816914       17.0302868224
O               -22.6346624403       71.9689990007       17.9068448249
C               -19.6850818591       73.1809063572       17.8893550397
C               -20.2774053311       73.3521283833       19.2857569970
C               -19.7641032184       74.5777229309       20.1411113809
O               -18.8463572780       75.3125921637       19.6773528087
O               -20.3604750192       74.6665169811       21.2488865920
H               -18.8583802066       72.3063727337       15.7996811946
H               -20.2289704488       71.0982099140       17.9406969557
H               -18.6019445457       73.0706237209       17.9623004768
H               -19.9058613844       74.0609247208       17.2876887694
H               -21.3617303578       73.4547117924       19.2448238518
H               -20.0633435957       72.4727527757       19.9016745741
N               -22.1139545037       72.7101975090       15.8517305625
C               -23.4955976951       72.8498988416       15.4769475359
C               -24.0504398800       71.6279628435       14.7679595469
O               -25.2001830580       71.2403230501       14.9699578328
C               -23.6569135349       74.0622529151       14.5846060422
C               -25.0844092479       74.1514921478       14.0534058516
C               -23.2769824646       75.2670991620       15.4256736004
H               -21.4045176663       72.9646905094       15.1765502436
H               -24.0905518803       72.9812385863       16.3891316860
H               -22.9621060256       73.9590900558       13.7460922891
H               -25.2095012118       75.0741109126       13.4923239055
H               -25.3075702678       73.3172856023       13.3945880480
H               -25.7971596438       74.1388926536       14.8736158154
H               -23.3715892722       76.1783861152       14.8390497625
H               -23.9288244513       75.3471066578       16.2918825876
H               -22.2486388934       75.1899129841       15.7626046513
N               -23.2236671636       71.0376608778       13.8898149267
C               -23.6931932626       69.7747521070       13.3423843727
C               -24.2211921641       68.9756941203       14.5495266617
O               -25.2952928668       68.3887837219       14.5660100174
C               -22.6713026153       68.9804626614       12.5071886830
C               -23.4663601128       67.9739874569       11.6401563967
C               -22.8831972119       67.2011776850       10.3644545014
O               -21.6912307999       66.8343609162       10.3224644874
O               -23.7652014259       66.9868652190        9.5056776150
H               -22.2712471352       71.3485206151       13.7594001148
H               -24.5640806348       69.9915904965       12.7077064168
H               -22.1365530428       69.6754173821       11.8562539754
H               -21.9442501400       68.4792783544       13.1458527153
H               -23.8780336536       67.1995629597       12.2880695291
H               -24.3234879900       68.5010952018       11.2141456218
N               -23.3342703733       69.0020247514       15.5542948527
C               -23.6189346271       68.4860853075       16.8692005664
C               -24.9145412999       69.0651488214       17.3767029589
O               -25.8403648603       68.2915282227       17.6028979375
C               -22.4838523536       68.6824228352       17.8892340950
C               -21.8108891580       67.3371666557       18.1974239371
C               -22.8594386404       66.2212894395       18.6716544983
O               -23.6351639899       66.5431206888       19.5913675500
O               -22.8180590398       65.1011347790       18.1126116287
H               -22.4259408795       69.4299798017       15.4202279569
H               -23.8112979765       67.4046984926       16.7863622421
H               -21.7532627468       69.3854161022       17.4905393084
H               -22.8915042446       69.0965618987       18.8124835291
H               -21.2821188062       66.9659464428       17.3167589742
H               -21.0880522006       67.4681729921       19.0068551632
N               -25.0409755450       70.3794402421       17.5913855353
C               -26.2257079866       70.7068650479       18.3880695505
C               -27.4464308428       70.0220160660       17.7762193806
O               -28.2265969604       69.3660848127       18.4622245755
C               -26.4617754030       72.1985492822       18.5687769676
C               -27.0621297376       72.4385091822       19.9467659582
C               -26.9997613346       73.9206747929       20.3018760230
N               -27.4419288127       74.1511798974       21.6736436185
C               -28.5497220037       74.7710207139       22.1133635788
N               -29.3489095214       75.4709261135       21.3105531322
N               -28.9142158991       74.6859656472       23.4112081240
H               -24.2234846228       70.9813829300       17.6758712078
H               -26.1022743720       70.2375166319       19.3753693402
H               -25.4925023634       72.6999617865       18.5111676778
H               -27.1022547142       72.5842699579       17.7750046760
H               -28.0919225760       72.0810013790       19.9735559731
H               -26.4916208762       71.8769130998       20.6884713787
H               -25.9668926195       74.2720857500       20.2202331796
H               -27.6108239473       74.4955973379       19.6076294096
H               -26.8993614582       73.6470311707       22.3629029202
H               -29.1876644165       75.5400310208       20.3190528148
H               -30.1779184895       75.9328304072       21.6540246930
H               -28.2862742091       74.2786427841       24.0850313886
H               -29.6041398427       75.3358978469       23.7549730842
H               -11.8015601606       82.6383086709        5.2669844028
H               -12.5735285719       80.7297200590        2.6732730605
H                -7.7626944439       80.7775034385       11.8189580415
H               -27.6255366629       70.1020388618       16.7956494150
