 319 
 
N                -0.1887132856       23.7654627872        9.7036838634
C                 0.3797230688       23.0177918275       10.8190992560
C                -0.1854754659       21.5907981566       10.8274710725
O                -1.2960441219       21.3366660995       10.3937965961
C                -0.0582002170       23.7927714305       12.0678546336
C                -0.3585286321       25.1930902458       11.5408834871
C                -0.9334145723       24.9268293415       10.1538172189
H                 1.4698534559       22.9797564213       10.7227580910
H                -0.9653283103       23.3518514309       12.4832511639
H                 0.7150536627       23.7912232349       12.8312381998
H                -1.0679594085       25.7336734124       12.1612798456
H                 0.5540814908       25.7832659592       11.4653896237
H                -2.0018294014       24.6923819511       10.2168133793
H                -0.7892130119       25.7777524897        9.4876911341
N                 0.6356782407       20.6800568438       11.3798663513
C                 0.2503748027       19.3032702651       11.5899888614
C                -0.3648532505       19.1328045635       12.9877318347
O                 0.3230083326       19.1610092456       14.0039978194
C                 1.4617944897       18.3812785073       11.4686702457
C                 1.1419300265       17.0096339657       12.0308723958
O                -0.0067126565       16.6349933911       12.2380708152
N                 2.2118721978       16.2512032374       12.2718924289
H                 1.5328598636       20.9785689113       11.7446943848
H                -0.5075955556       19.0520913570       10.8435399162
H                 1.7738894116       18.2820314398       10.4278288768
H                 2.3023962947       18.7910639258       12.0312623651
H                 2.0922549933       15.3402004833       12.6854802899
H                 3.1464113694       16.6258857786       12.1755387071
N                 1.4187672215       17.1107663239       15.6288427959
C                 2.7826721455       17.4363723372       15.9961619682
C                 2.9375261639       17.4512653944       17.5213340726
O                 2.2190281676       18.1310485910       18.2335753262
C                 3.1522098280       18.8257180002       15.4645695360
C                 4.5212786251       19.2121050005       15.9454071898
C                 4.7040477555       20.1572655299       16.9471384253
C                 5.6401786848       18.5844701992       15.4092685229
C                 5.9707783082       20.4844128612       17.3993116942
C                 6.9082938787       18.9100022469       15.8406120992
C                 7.0815752389       19.8622150759       16.8423120201
O                 8.3516362266       20.1826264306       17.2072727017
H                 0.9226109593       17.7963712787       15.0648265997
H                 3.4584650340       16.6787502950       15.5771779156
H                 3.1238041371       18.7913932623       14.3738503648
H                 2.4050101302       19.5376167119       15.8163349163
H                 3.8415680558       20.6367709070       17.3846679460
H                 5.5250053453       17.8413033371       14.6348906529
H                 6.1134388505       21.2112805756       18.1843414290
H                 7.7703460050       18.4209571979       15.4200014995
H                 8.3335768043       20.8749445699       17.9309525342
N                 6.5759267735       17.0160347236       19.0420594918
C                 7.9883893046       16.9320913560       19.3382908984
C                 8.3189022762       18.0773672576       20.3065516924
O                 7.5138637458       18.9598358464       20.5605775941
C                 8.8609769786       17.0359769288       18.0882989157
C                 8.3647355604       16.2066805003       16.8415307535
O                 7.4874326469       15.3491030755       17.0128746828
O                 8.9302322011       16.5168141337       15.7714897361
H                 6.2749868902       17.7145185179       18.3803149269
H                 8.1325209539       15.9668991737       19.8366542212
H                 8.9258954513       18.0721228141       17.7551426333
H                 9.8704954243       16.6832249735       18.3044706599
N                 9.5616270433       18.0701706309       20.8253361933
C                 9.9357010702       19.0617587119       21.8146982508
C                10.0545437284       20.4522554962       21.1826391689
O                 9.8667181254       21.4783275133       21.8205264830
C                11.2601520959       18.7036279692       22.5233665337
C                11.4376792463       19.5922222092       23.7539502866
C                11.2912283109       17.2338803727       22.9483327135
H                10.1840999897       17.3015715552       20.6394473077
H                 9.1278130026       19.1280585051       22.5556266509
H                12.0807344526       18.8927237650       21.8227335062
H                12.4309982226       19.4571686033       24.1714961756
H                11.3039956186       20.6384016192       23.4953398397
H                10.6998742498       19.3302249276       24.5081088717
H                12.1368104794       17.0721393339       23.6109647608
H                10.3785449228       16.9762041443       23.4797007256
H                11.4021332318       16.5619116093       22.1010597361
N                10.5051963733       20.4760789084       19.9164948809
C                10.8100975886       21.7442117674       19.2774402151
C                 9.5633822550       22.6309165639       19.2254626987
O                 8.4649965383       22.1849411876       18.8654794191
C                11.3533249564       21.5028720599       17.8736929299
H                10.4515533943       19.6495928582       19.3417520053
H                11.5729269615       22.2288266414       19.8943534981
H                11.5512823158       22.4513833253       17.3824528609
H                12.2835022463       20.9453929828       17.9363072907
H                10.6395192193       20.9401083821       17.2763801054
N                 9.6926423540       23.9143343046       19.5375033504
C                 8.5285378078       24.7875235534       19.4399528433
C                 8.1293712726       24.9283591421       17.9685323393
O                 8.9562256843       24.7986611638       17.0682712050
C                 9.0013467847       26.1209059571       20.0311710460
C                10.5116433586       26.0909176640       19.8041820511
C                10.8712919405       24.6204341982       20.0119138596
H                 7.6928463537       24.3445852923       19.9902602446
H                 8.5271229733       26.9704695313       19.5429041678
H                 8.7767271772       26.1471720544       21.0960729053
H                10.7338098721       26.3856332454       18.7793884294
H                11.0406581804       26.7443857600       20.4920348251
H                11.7581181151       24.3224050178       19.4514500122
H                11.0186302204       24.3902487141       21.0724448514
N                 6.8351729504       25.1869392109       17.7393507357
C                 6.3486575664       25.4760093840       16.4020663252
C                 6.8739665608       26.8388864478       15.9256175756
O                 6.6659602088       27.8550570757       16.5764826180
C                 4.8150994202       25.5080712899       16.4176523076
C                 4.2796021153       25.5773128725       15.0132974536
C                 3.9490830591       24.4145709559       14.3301840620
C                 4.1366174303       26.8028946099       14.3732400495
C                 3.4856412828       24.4752601472       13.0285409411
C                 3.6784268937       26.8662374900       13.0700546153
C                 3.3548450621       25.7003224355       12.3964069391
H                 6.2721590480       25.5276451748       18.5054393954
H                 6.7083553494       24.6998110279       15.7260018071
H                 4.4552601422       24.5995336319       16.9017031819
H                 4.5036941116       26.3953351932       16.9743482290
H                 4.0499876749       23.4555422859       14.8155974754
H                 4.3859350217       27.7153571978       14.8972067710
H                 3.2401267790       23.5648967432       12.5038528933
H                 3.5699859060       27.8249211356       12.5843089428
H                 3.0075720587       25.7490614968       11.3750552919
N                 7.5402926370       26.8104814672       14.7671787553
C                 7.8661902221       28.0232794089       14.0417503241
C                 8.3584802660       27.6646176789       12.6484755855
O                 9.1764691521       26.7759278792       12.4625659349
C                 8.9816659013       28.8532133906       14.7105308641
C                 9.3221315319       30.0866024992       13.8780304895
C                10.1833181043       31.1026050474       14.6860795294
O                11.4080780951       31.1473175623       14.4246646943
O                 9.5938149228       31.7968414684       15.5282747107
H                 7.7098661949       25.9289517322       14.2901557241
H                 6.9653919146       28.6434560078       13.9816831693
H                 8.6425860228       29.1661182495       15.7000067649
H                 9.8689722678       28.2282551733       14.8243912389
H                 9.8598786960       29.7984660767       12.9738823024
H                 8.4012410637       30.6017406504       13.5938796143
N                 7.8662146905       28.4314791730       11.6714972877
C                 8.3593964695       28.3941350236       10.3095611055
C                 8.8998576667       29.7780698779        9.9449567975
O                 8.3096745912       30.7942130735       10.3036400569
C                 7.2309204656       27.9865063663        9.3408438475
C                 7.7667897562       27.9020178386        7.9161772489
C                 6.6188670101       26.6635136463        9.7947161631
H                 7.1845358907       29.1443999333       11.9028152639
H                 9.1685288477       27.6588771572       10.2765002669
H                 6.4592566355       28.7618816087        9.3877203429
H                 6.9992349250       27.5225130016        7.2474850737
H                 8.0761858977       28.8825835068        7.5659368442
H                 8.6256122718       27.2380460989        7.8696533934
H                 5.9261028784       26.2914244816        9.0453966110
H                 7.3989188682       25.9242404000        9.9586398358
H                 6.0780309395       26.7899537946       10.7303824026
N                10.0268194299       29.8012760881        9.2249919456
C                10.6334644262       31.0483128193        8.8084029034
C                10.8237250797       31.0895150279        7.2930772752
O                11.1994496766       30.1094981303        6.6541138566
C                11.9967785486       31.2534181618        9.4884648908
C                11.8174465076       31.4718841591       10.9898468893
C                13.1381642682       31.6270645365       11.7484438641
N                13.9818800103       30.4521312417       11.6530008242
C                13.7068541792       29.2905473828       12.2408152517
N                12.7275844963       29.1607632254       13.1131685230
N                14.4835255003       28.2276366154       11.9689741159
H                10.4680665448       28.9348986815        8.9321882945
H                 9.9561659464       31.8528758651        9.1095383552
H                12.6082113431       30.3697051168        9.2966734112
H                12.4904431995       32.1125652027        9.0293098107
H                11.2166421444       32.3662522262       11.1596905299
H                11.2696424936       30.6262416517       11.4036143770
H                13.7076493746       32.4592049307       11.3384384841
H                12.9052874122       31.8290470352       12.7959518748
H                14.7421002706       30.4995126609       10.9862744362
H                12.2238348306       29.9659084224       13.5339094619
H                12.6009688443       28.2449451200       13.5333828699
H                15.1413064399       28.2371023988       11.2088353235
H                14.2549597345       27.3405417620       12.3894784206
N                11.2812105882       24.8559100459        8.2722750410
C                10.3725689936       24.3712991515        9.2952072892
C                11.1683005386       23.8837479773       10.5148940296
O                12.0555157488       23.0498614073       10.4077682992
C                 9.5636801253       23.1843364880        8.7439874342
C                 9.0726193110       23.4359356297        7.3439277925
C                 8.0630562616       24.3544782555        7.0920165385
C                 9.6415627195       22.7495174792        6.2777012929
C                 7.6174660721       24.5690353535        5.7995167108
C                 9.2017581209       22.9718237142        4.9842674474
C                 8.1844436343       23.8776438155        4.7430014758
H                11.7263186072       24.1559408406        7.6984052098
H                 9.7276813389       25.2128187709        9.5644230290
H                10.2162431962       22.3072149890        8.7402239051
H                 8.7279412660       22.9865141230        9.4178276738
H                 7.6294683864       24.9078187803        7.9083358934
H                10.4326965841       22.0375844833        6.4710124488
H                 6.8308076792       25.2834625249        5.6137770174
H                 9.6689188647       22.4602844676        4.1574722570
H                 7.8458013461       24.0440153432        3.7327908798
N                10.8081570277       24.3787371697       11.7149300255
C                11.6096981404       24.0479322586       12.8826916913
C                11.8466752202       22.5417346587       12.9877179696
O                12.9404630421       22.0781673540       13.2545826280
C                10.9774048459       24.5790063293       14.1691166059
C                11.6375189012       25.8658596669       14.6413249770
O                12.4839307655       26.4610344018       13.9913676109
N                11.2312047489       26.2723192129       15.8486328227
H                10.1607903575       25.1530221530       11.8148975858
H                12.6089689948       24.4949560443       12.7649415368
H                 9.9172820929       24.7771162479       14.0020810909
H                11.0607694025       23.8359552988       14.9628854883
H                11.5799057623       27.1412415555       16.2247225487
H                10.4816302851       25.7912153247       16.3292141971
N                10.7334708969       21.7759297492       12.9127194693
C                10.8480385182       20.3534023056       12.6909044173
C                10.0610055597       20.0066561379       11.4293686015
O                 9.0781930165       20.6500367698       11.0839482722
C                10.3188345640       19.5155470948       13.8871649445
O                 9.6418757570       18.3665498983       13.4115261965
H                 9.8857456978       22.1912595127       12.5441888684
H                11.9087041321       20.1369596954       12.5290345406
H                11.1594257628       19.2278547200       14.5245461684
H                 9.6378141914       20.1397585760       14.4783797827
H                 9.5072741304       17.7451132055       14.1496426168
N                10.5072630885       18.9365007044       10.7722833336
C                 9.9404212679       18.5248070892        9.5084465615
C                 8.5120503768       17.9900214603        9.6495118973
O                 7.7942517507       17.8645951856        8.6707076256
C                10.8563485105       17.4940891635        8.8451232870
C                12.1482692923       18.1524353728        8.3498829171
C                11.7929432697       19.1336345811        7.2081494737
O                11.4810404192       18.5768567524        6.1199936901
O                11.7880452061       20.3503598213        7.4252325267
H                11.3174839633       18.4378851042       11.1071846500
H                 9.8696620373       19.4066363362        8.8561563934
H                11.0785488535       16.6971379965        9.5586047029
H                10.3355334129       17.0599580081        7.9901822822
H                12.6521570453       18.7002687480        9.1469785260
H                12.8196868150       17.3921620514        7.9501405766
N                 8.1208290847       17.6907368968       10.8968792244
C                 6.8278503961       17.1178040423       11.1845833561
C                 5.8493566313       18.1277868753       11.7774295551
O                 4.7362956971       17.7859131216       12.1600575641
C                 6.9835066302       15.8855048251       12.0859645767
C                 7.8327033602       14.8491932204       11.4256961905
N                 8.7712189112       14.1431272230       12.1206585955
C                 7.8415854813       14.4490539287       10.1141971584
C                 9.3300216141       13.3402933647       11.2567655205
N                 8.8030648202       13.4837966452       10.0206636661
H                 8.7600033069       17.7839693472       11.6793911735
H                 6.3944259440       16.8157490130       10.2204124723
H                 7.4512336082       16.1624225113       13.0337700545
H                 5.9921938704       15.4820170180       12.3042118009
H                 7.2789189724       14.7745203681        9.2645353198
H                10.1136115625       12.6513023427       11.4955491384
H                 9.0675220258       13.0021951162        9.1766658624
N                 6.2529595560       19.4033382279       11.7967306439
C                 5.3943527094       20.4637692049       12.2767743159
C                 4.2846704627       20.8195713731       11.2870221434
O                 3.3413619542       21.5135123207       11.6407559070
C                 6.2079301877       21.7307409452       12.5546843030
C                 7.0555751800       21.5504793322       13.8042277624
C                 7.7609950727       22.8099143341       14.2648430853
O                 7.6590055392       23.8993741019       13.7132113332
N                 8.5133906496       22.6347784999       15.3586246044
H                 7.1826744518       19.6540744474       11.4807122029
H                 4.9067549473       20.1296471155       13.2023592194
H                 6.8545769342       21.9410529410       11.7000309704
H                 5.5304336599       22.5739698437       12.6956322629
H                 6.4211717552       21.2197230888       14.6303910335
H                 7.7977083328       20.7702732139       13.6342525725
H                 8.5167344983       21.7564255680       15.8540621169
H                 8.8630952624       23.4488396381       15.8576875946
N                 4.4516469419       20.3725387164       10.0437451274
C                 3.7308230682       20.8539137395        8.8862691199
C                 3.1627509645       19.6811110937        8.0937383288
O                 3.7612782410       18.6204595673        7.9635852694
C                 4.7370850315       21.6596044418        8.0275614365
C                 4.2419461425       21.8901833944        6.6095893260
C                 5.0264577158       22.9936258743        8.7055588270
H                 5.2190618113       19.7491999549        9.8339054988
H                 2.9133209847       21.4947957809        9.2252614325
H                 5.6603646941       21.0709766215        7.9774522369
H                 4.9868118087       22.4647994072        6.0651576984
H                 4.0938803061       20.9462005242        6.0927999071
H                 3.3031949077       22.4378713643        6.6180368284
H                 5.7623868900       23.5454930512        8.1289294981
H                 4.1141732441       23.5807744265        8.7733198654
H                 5.4118452722       22.8476891793        9.7111942786
N                16.6881056773       22.4616399297       18.1388542961
C                15.9395184026       23.5900778148       17.6211385284
C                15.0586546750       24.1562227451       18.7466526302
O                14.2538682895       23.4571189093       19.3491605187
C                15.0630741539       23.1495249360       16.4441718831
C                14.1965849443       24.3115748384       15.9761895974
C                15.8998575653       22.6416035709       15.2732906673
H                16.6275593205       21.5721079855       17.6587452614
H                16.6450982721       24.3708096019       17.3064567213
H                14.4162095446       22.3458166407       16.8122076882
H                13.6588333829       24.0091468340       15.0840248166
H                13.4902484909       24.6080011001       16.7469996846
H                14.8224045360       25.1661972921       15.7325833815
H                15.2406272176       22.2080912458       14.5258084006
H                16.4331373320       23.4687587582       14.8139878030
H                16.6216386254       21.8955911371       15.5888860916
N                15.2014057148       25.4718400793       18.9453240264
C                14.4872054803       26.2145625368       19.9493565698
C                15.2589079919       26.4378571228       21.2472581633
O                14.8735365958       27.2672819093       22.0655712872
H                15.9581869242       25.9640127777       18.4885306319
H                14.2208890389       27.2016545177       19.5530951223
H                13.5758434292       25.6674028833       20.2045974661
H                 0.4722159352       24.0389972936        9.1574683027
H                -1.3502738224       18.9944920249       13.0868072517
H                 1.4102757620       16.3483891672       15.1506075336
H                 3.6430840719       16.8929332521       17.9577435790
H                 6.2932797449       16.2323391920       18.7015716491
H                10.6409991976       31.9336085513        6.7889767140
H                10.8350991787       25.3925540486        7.7039460653
H                 2.2676002757       19.7608260573        7.6551602071
H                17.5662744826       22.6586644504       18.1397964582
H                16.0848075430       25.9064465512       21.4356533222
