 188 
 
N                -4.1469090205       77.6836965591        8.8889763167
C                -4.5209194699       76.7399445392        9.8986137141
C                -5.3803981637       77.4234952128       10.9720097884
O                -6.3470728605       76.8761726629       11.5134139252
C                -3.3546402277       76.0620933934       10.5655585774
C                -3.8789519774       74.6771377121       11.0346911258
O                -4.5702345687       73.9657527937       10.3106824408
N                -3.4320401350       74.2929011971       12.2593110798
H                -3.2009591742       77.7517126309        8.5373004348
H                -5.1369826787       75.9517733201        9.4378781864
H                -2.5735862163       75.8742417569        9.8251587504
H                -2.9409182423       76.6440920595       11.3847093571
H                -3.9455816424       73.5756315475       12.7538913325
H                -3.0571723000       74.9932933566       12.8795975510
N                -4.9403573532       78.6096118850       11.3537868106
C                -5.5383924206       79.3124247606       12.4657441290
C                -7.0456939702       79.2760646477       12.4013746797
O                -7.7019101089       79.0443612950       13.4098623001
C                -5.0141155040       80.7516279836       12.5423366164
C                -3.4983865714       80.7872741905       12.7899023271
C                -3.2226570726       82.2311974160       13.2347315387
O                -3.1362046329       83.0606160490       12.3139502643
O                -3.1703745482       82.4727068858       14.4595841459
H                -4.0830001411       78.9861825099       10.9601906064
H                -5.2706584190       78.7961061490       13.4060127456
H                -5.2585482259       81.2878874113       11.6335493668
H                -5.5220599377       81.2269620221       13.3872755160
H                -3.2432988948       80.0837303254       13.5917647060
H                -2.9395636377       80.5209792919       11.9024634086
N                -7.5480492087       79.5815599160       11.2062750028
C                -8.9420209361       79.5500037499       10.9239686173
C                -9.4522862570       78.3023767541       10.2694386755
O               -10.6537189616       78.2438218456       10.0499020983
C                -9.3931047026       80.7086888293       10.0783561761
C                -9.4192198033       82.0325965804       10.9065050074
C               -10.7870454917       82.7873242165       10.9306918772
N               -10.9551518570       83.7403133209        9.8212679444
C               -11.6461391340       83.5480014624        8.6748113906
N               -12.8092342366       82.9177827326        8.6519340452
N               -11.1812323254       84.0746380793        7.5523516143
H                -6.9057157689       79.7294091530       10.4383689491
H                -9.4583461934       79.5754356875       11.8966546199
H                -8.7132809102       80.7830124161        9.2276261095
H               -10.3922713502       80.4820410786        9.7062386798
H                -9.1646183571       81.8052989880       11.9408195138
H                -8.6468149240       82.7016888109       10.5260085964
H               -11.5985926312       82.0597478878       10.9233799197
H               -10.8574351073       83.3434270104       11.8671889799
H               -10.1309785186       84.3185453676        9.7008584240
H               -13.1715265013       82.3128016099        9.3917097731
H               -13.2445385686       82.7205001829        7.7686949356
H               -10.4813649913       84.8026035450        7.5640500501
H               -11.7674468198       84.1205158103        6.7311250834
N                -8.5898984289       77.3181434023       10.0409924968
C                -9.0204591914       75.9345063738        9.9335629864
C                -9.5797695881       75.4754858336       11.3217403036
O               -10.5945408976       74.7882893354       11.4310982734
C                -7.9027752669       75.0023086709        9.4397531257
C                -7.4546854354       75.1111044295        7.9541423826
C                -8.3644224469       74.5301437662        6.8481568849
N                -8.6575766023       73.0824071313        6.9288987134
C                -8.7651603314       72.1410138192        5.9715719428
N                -8.2147486709       72.2644985868        4.7622128086
N                -9.4068636521       70.9986817469        6.2663189489
H                -7.6328137932       77.4555644129       10.3303008037
H                -9.8787312250       75.8940325569        9.2508813460
H                -7.0270316959       75.1985686078       10.0586338191
H                -8.2077184519       73.9755491972        9.6529547930
H                -7.3253135641       76.1673143315        7.7226205235
H                -6.4800616892       74.6227306341        7.8889283433
H                -9.3260367162       75.0514613841        6.8761058953
H                -7.9077087437       74.7381761299        5.8821097905
H                -9.0594493469       72.8241901897        7.8216053730
H                -8.1011576805       73.2098377384        4.3913669480
H                -8.4341834412       71.5883453846        4.0465057941
H                -9.6827410686       70.7885858198        7.2136847373
H                -9.3679220740       70.2270531533        5.6191422404
N                -8.9330093280       75.9410188845       12.3933857123
C                -9.4646542717       75.6599426711       13.7113040461
C               -10.7250482808       76.5167722873       13.9430490169
O               -11.8065404732       75.9443299113       13.9284589244
C                -8.3216136458       75.6883675668       14.7267167323
C                -7.4664676570       74.4409000841       14.4401682260
C                -6.1468509375       74.1731004207       15.2913173233
O                -6.2718223726       73.8287068953       16.4863732081
O                -5.0826538924       74.2859247643       14.6544901637
H                -8.0387983073       76.4097338566       12.3322110623
H                -9.8674713372       74.6356257271       13.6880132850
H                -7.7207227626       76.5959731803       14.6262764693
H                -8.7063083699       75.6501576571       15.7473427700
H                -8.0925935623       73.5584723842       14.5945274465
H                -7.1319130453       74.4688533671       13.4027384775
N               -10.6039770332       77.8427034492       14.0490477556
C               -11.7416473996       78.7193024042       14.3345510337
C               -13.0050588955       78.1404465867       13.7034893128
O               -14.0145801360       78.0252815753       14.3879459352
C               -11.4852851465       80.2009727459       13.9609266756
C               -10.2403625599       80.6882953696       14.7337582983
C                -9.7754963087       82.1917674363       14.6508300206
O               -10.6623222207       83.0141265473       14.3658534489
O                -8.5651686056       82.4184528559       14.9025246776
H                -9.6761185780       78.2461847535       14.1141805332
H               -11.9235560907       78.6902001138       15.4212632155
H               -11.3557953289       80.2935601547       12.8823982921
H               -12.3615551209       80.7861933804       14.2341570182
H               -10.4160565916       80.4948012069       15.7984410516
H                -9.3582199779       80.1120667621       14.4518475983
N               -12.9467866960       77.7205701430       12.4352259000
C               -14.1585216216       77.2465776220       11.7966899713
C               -14.4726036741       75.7723267820       12.0063155833
O               -15.6321509576       75.4563713390       12.2745675522
C               -14.1951431403       77.5032374668       10.2822876017
C               -15.0074209493       78.7407300609        9.8684245222
C               -14.3677737230       80.1444737149       10.1801084113
O               -14.4118338334       80.9368389752        9.2095243633
O               -13.8858716991       80.4015246444       11.3046726206
H               -12.1705692004       77.9685201409       11.8382286231
H               -14.9866496039       77.7833357230       12.2811977854
H               -13.1663785292       77.6288647041        9.9340725295
H               -14.6165277554       76.6256359974        9.7898550157
H               -15.1627700279       78.7128910708        8.7880326162
H               -15.9911900317       78.7324510471       10.3459346727
N               -13.5314867438       74.8401373935       11.7611588207
C               -13.9857982926       73.5042148045       12.0496220749
C               -14.2525552290       73.2141148550       13.5322496652
O               -14.7761066161       72.1573558401       13.8323121130
C               -13.2648606246       72.3789720895       11.3354360495
O               -14.1990546352       71.7792931394       10.4481056772
H               -12.5393626715       75.0434078080       11.8081725950
H               -15.0118339883       73.4627512959       11.6428758989
H               -12.4121945674       72.7914878098       10.7815796646
H               -12.9057645464       71.6496752142       12.0684076129
H               -13.9439738775       70.8596007186       10.2975009772
N               -14.0201487451       74.1995545577       14.4144325554
C               -14.7847957463       74.3180942316       15.6546954992
C               -16.2760618331       74.3855519859       15.3359455678
O               -17.0034243582       73.3964908035       15.3582916262
C               -14.4183655456       75.5479971536       16.4930002508
H               -13.4437968449       74.9901940530       14.1590583971
H               -14.6401261642       73.3955105777       16.2366116095
H               -15.1605633353       75.6793287299       17.2765709558
H               -13.4445709175       75.4132600031       16.9570031956
H               -14.3677136191       76.4398139250       15.8730179429
N               -16.7479759129       75.6075842591       15.0975753500
C               -18.1600376504       75.8300764620       15.3018387711
C               -18.9242677904       74.7386156225       14.5679867259
O               -19.8828188937       74.1698718555       15.0807318209
C               -18.5656458021       77.2081280821       14.8248168083
H               -16.1352898717       76.4091465973       15.1028981256
H               -18.3878994322       75.7336379518       16.3765568137
H               -19.6315715406       77.3551251401       14.9722087612
H               -18.0265876734       77.9595429040       15.3962727427
H               -18.3298687484       77.3246554741       13.7695526273
N                 2.0207917908       72.8501119491       15.1130851559
C                 0.6108166277       72.8525071611       15.3044273936
C                -0.1653445130       72.6698888294       13.9900708856
O                -1.2398770568       72.1194372232       13.7618982031
C                 0.3583279372       74.1825430649       15.9727998652
C                -1.1350565572       74.3553775176       15.9529500260
C                -1.8355354135       73.1291949756       16.6628134435
O                -2.6833235570       72.4774097320       16.0111422309
O                -1.4952844518       72.9800383385       17.8546592183
H                 2.5164001498       73.6467881209       15.4885241930
H                 0.3116404435       72.0299065872       15.9761382700
H                 0.7033334461       74.1347006833       17.0014633236
H                 0.8610246993       74.9832668774       15.4303549328
H                -1.4478790935       75.2396022347       16.5198533456
H                -1.5105816994       74.4499787097       14.9320168844
N                -2.1871147353       69.7836152309       12.5593607728
C                -3.4609497151       69.6853893786       11.8559525584
C                -3.4677732464       68.9609312024       10.4902222877
O                -4.4495507515       68.2958946122       10.1496961780
C                -4.1453305472       71.0404395149       11.7293516467
C                -5.0368369950       70.9877164096       12.9497922078
O                -4.5890316381       70.7481853399       14.0596222326
N                -6.3421145320       70.9954287577       12.6114475042
H                -1.9730003195       70.6230082072       13.0838409353
H                -4.1031795757       69.0449977900       12.4685042642
H                -3.4016730245       71.8303855096       11.7543828344
H                -4.7277541173       71.1232712759       10.8153228271
H                -7.0647395963       70.9518667925       13.3110893465
H                -6.6227524420       71.2135248533       11.6716065399
H                -4.6255307582       77.5304155473        8.1423665366
H               -18.6486666835       74.4692245644       13.6452340572
H                 2.3763495085       72.1238122301       15.5081388581
H                 0.2053048627       73.0342547096       13.1357544655
H                -2.1268052823       69.1211321144       13.1655611442
H                -2.6764484921       69.0313859669        9.8828992605
