 438 
 
N                20.7122443997       39.3350875891       75.9842219560
C                19.6380758259       39.8581841595       75.1642926624
C                19.3886560891       41.3501875741       75.3981208418
O                18.8076739978       42.0493623430       74.5884834429
C                18.3909350786       39.0239853884       75.4426495374
C                17.1784566930       39.3961685628       74.6439101238
C                16.2542566395       40.2806257676       75.1840117077
C                16.8933268947       38.7426505256       73.4510323484
C                15.0177628336       40.4538909910       74.5959279782
C                15.6510126832       38.9079101791       72.8665779363
C                14.7068274942       39.7399184137       73.4505750564
H                20.4589926050       38.6992817770       76.7502369912
H                19.9207057900       39.7497336781       74.1122400872
H                18.6443537840       37.9796299864       75.2514602768
H                18.1551319493       39.1048173865       76.5080970604
H                16.4699546934       40.7729091672       76.1206685854
H                17.6108208037       38.0547473506       73.0342890345
H                14.2895856476       41.1018538763       75.0551475903
H                15.3877386039       38.3733163535       71.9668627872
H                13.7262546698       39.8383576196       73.0070190483
N                19.9292355198       41.8529644434       76.5221069723
C                20.0574115794       43.2885583551       76.6977196780
C                20.9113678755       43.8968445427       75.5548368321
O                20.6451143009       44.9901174851       75.0882441746
C                20.6948521378       43.5951930322       78.0614836940
C                19.7147235724       43.5821386702       79.2437621234
C                18.7897348328       44.8060034712       79.2379169076
C                17.9703316498       44.9184341273       80.5243607487
N                17.2089621665       46.1929313188       80.5392143644
H                20.2975747989       41.2355537281       77.2309732474
H                19.0717920403       43.7602387184       76.6164447970
H                21.4747601669       42.8539881953       78.2455627247
H                21.1715701365       44.5746432874       78.0128505264
H                19.1232535454       42.6669371483       79.2472070073
H                20.3005933717       43.5931875101       80.1626496700
H                19.4073522045       45.6997879516       79.1402242142
H                18.0991248929       44.7585765455       78.3970765753
H                17.2596942908       44.0944722027       80.6021967393
H                18.6151231556       44.9022979074       81.4035098168
H                16.5112052348       46.2773594086       81.3669069247
H                17.8352804849       47.0018320008       80.5779199165
H                16.5908547577       46.2679347684       79.7207833537
N                20.0074969005       43.7672510513       71.2828676016
C                18.8867116773       44.5923880829       70.8834082564
C                19.0127711112       46.0255401922       71.4122357408
O                18.5669232136       46.3180437820       72.5221727624
C                17.5998730983       44.0436343338       71.5375238791
C                17.2170734516       42.6136188025       71.1689773598
C                16.5625489695       42.4966546087       69.7944137405
C                16.5599655475       41.0537739699       69.2961843648
N                17.7610970448       40.8068044617       68.4306117116
H                20.3044391431       43.8762587883       72.2416915790
H                18.8366108213       44.5883136552       69.7917505262
H                17.7665177320       44.0781673518       72.6139272478
H                16.7870649637       44.7253414705       71.2875714834
H                18.1012606823       41.9836391366       71.2394456706
H                16.5186452724       42.2480161922       71.9239400700
H                15.5364195115       42.8581853689       69.8564051741
H                17.0828943412       43.1311892137       69.0770975548
H                16.5724831829       40.3779516624       70.1508030293
H                15.6528876151       40.8519210698       68.7271423494
H                17.5824867176       41.1913365850       67.4925941694
H                18.5946317451       41.3153281184       68.8160675808
H                17.9341856565       39.7972213526       68.3409243759
N                19.4828172909       46.9932795825       70.6236349347
C                19.3530250325       48.3449416747       71.1442486154
C                17.9099763519       48.4411514523       71.6865219996
O                16.9923735623       47.9505803546       71.0350212019
C                19.5747001850       49.3705039539       70.0171573614
O                20.7563997031       49.0261275665       69.3350207955
H                19.9865071104       46.8575378025       69.7604497161
H                20.0865467561       48.5104371684       71.9416469488
H                18.7200461761       49.3585762459       69.3266730691
H                19.6457467719       50.3660899090       70.4695275481
H                21.0701454623       49.7772146837       68.8197569755
N                17.6770088591       49.1850295057       72.7784316048
C                16.3269909592       49.3383900705       73.3304852298
C                15.2690425372       49.2988494458       72.2198886355
O                14.3483007165       48.4900927964       72.2464379691
C                16.2528415302       50.6479810223       74.1352596160
C                14.8500441587       51.2570139370       74.3088572846
C                13.8142898891       50.2822529858       74.8503811365
C                14.9446675102       52.4468571367       75.2663494776
H                18.4370849846       49.4931677143       73.3671697689
H                16.0969940583       48.4868124927       73.9838608305
H                16.6648825590       50.4654575823       75.1281932187
H                16.8743377139       51.4003822679       73.6459989794
H                14.4942285410       51.6253989967       73.3406369435
H                12.8421022806       50.7649716427       74.9346023653
H                13.6997802508       49.4025392927       74.2261550334
H                14.0868839092       49.9441811559       75.8498675402
H                13.9764759411       52.9347113906       75.3506267177
H                15.2297732766       52.1113072841       76.2609021467
H                15.6697005718       53.1795837667       74.9217305905
N                15.3870895904       50.2267220385       71.2633696768
C                14.4494696134       50.4019606542       70.1673829965
C                13.9890136318       49.0547842818       69.5855335991
O                12.7967957405       48.7942135442       69.4426848778
C                15.1262721816       51.2363369455       69.0834837786
H                16.1324196232       50.9051269453       71.3265221273
H                13.5436019981       50.9111795338       70.5254321919
H                14.4549998230       51.3563717005       68.2371051766
H                15.3629701102       52.2243675499       69.4704490800
H                16.0353928715       50.7493257133       68.7412741282
N                14.9836073170       48.2631747609       69.1676955016
C                14.7479263820       47.0207971695       68.4470293615
C                13.7122403406       46.1635678452       69.1927936918
O                12.7683431793       45.6026415318       68.6561018884
C                16.0480259680       46.1961928689       68.2411502951
C                17.3087112149       47.0053740646       67.8817373549
C                15.7897695558       45.1193676795       67.1862527613
C                17.2641779261       47.7513960851       66.5522115526
H                15.8957748046       48.3698244793       69.6005563898
H                14.3032227834       47.2735268926       67.4760130486
H                16.2612354171       45.7172398355       69.2029599043
H                17.5180387032       47.7091530446       68.6845303736
H                18.1394644001       46.2986280621       67.8534237642
H                16.6993235927       44.5567798888       67.0027865633
H                14.9959434350       44.4503937726       67.5057691009
H                15.4766049844       45.5769405026       66.2516083423
H                18.1750149104       48.3307699154       66.4220938950
H                17.1842730815       47.0650139489       65.7147663812
H                16.4176908199       48.4332323489       66.5171526811
N                13.9919399292       45.9849588502       70.4977405722
C                13.1611469802       45.1244701362       71.3103405416
C                11.8934063072       45.8055283412       71.8218652803
O                10.8911015966       45.1579970051       72.1176701151
C                13.9662282619       44.5211473735       72.4681855598
C                14.2740381297       45.4959951307       73.6113296080
C                15.7267780264       45.3653678837       74.0687458004
N                15.8787966745       45.9829966905       75.3688129406
C                17.0110682837       46.3089270200       75.9647752441
N                18.1859513729       46.2448958240       75.3556117959
N                16.9544309211       46.6700231549       77.2704469546
H                14.6607428263       46.5847997724       70.9639788326
H                12.8229629076       44.3108215067       70.6544516484
H                13.3942099337       43.6746032626       72.8433207203
H                14.8932260702       44.1376003174       72.0471521591
H                14.0895244871       46.5248794432       73.3068459552
H                13.6119881560       45.2973144995       74.4567548851
H                15.9934331217       44.3049928956       74.1408420878
H                16.3831818314       45.8630026911       73.3511003496
H                15.0383964725       46.0227261445       75.9520007281
H                18.2742928992       46.0532862518       74.3624944346
H                19.0428428326       46.4552182121       75.8425955796
H                16.0161637191       46.7717691264       77.6428660614
H                17.6506395305       47.3151710061       77.6118120080
N                11.9568221016       47.1346500131       71.9137401137
C                10.8136058746       47.9182500461       72.3189524573
C                 9.6312916555       47.5743937790       71.4022683195
O                 8.4904957416       47.3985071769       71.8249874478
C                11.1791753987       49.3999383360       72.2554886972
C                10.0531472671       50.2862432045       72.7842682198
C                 9.7242025418       49.8808151602       74.2119984850
O                10.3464771765       50.2963972022       75.1762878797
N                 8.7060655800       49.0068481252       74.3197951524
H                12.8161193025       47.6389893472       71.7280072417
H                10.5278167446       47.6381682445       73.3417395443
H                12.0692919038       49.5521389173       72.8642765294
H                11.4063470616       49.6613052315       71.2200376560
H                10.3804528370       51.3253533234       72.7865645340
H                 9.1691972207       50.1918926963       72.1531576608
H                 8.2959358655       48.5708818943       73.5043321948
H                 8.4470799142       48.6755553702       75.2342703130
N                 9.9612558633       47.4341804228       70.1195205046
C                 8.9599309301       47.0247939769       69.1536941837
C                 8.3205753708       45.7249992007       69.6575117674
O                 7.1105704160       45.5966355118       69.8039052706
C                 9.5971683263       46.8310618959       67.7701656222
C                 8.5702356255       46.7419783754       66.6407446039
C                 8.1975719068       48.1580025145       66.0793656367
O                 8.1677996127       49.1022604993       66.8947277764
O                 7.9685680214       48.2195532602       64.8532094365
H                10.8761028582       47.7118923633       69.7853525462
H                 8.1765921550       47.7902249116       69.0718072268
H                10.2313971171       47.7019656732       67.5845708009
H                10.2392501581       45.9465385666       67.7776272862
H                 8.9564898941       46.1583720033       65.8052348909
H                 7.6441099531       46.2774880449       66.9871768614
N                 9.1933114217       44.7411103029       69.8915132967
C                 8.8286215240       43.3384791882       70.0452328623
C                 7.8364315657       43.1494882652       71.1931796127
O                 6.8732985920       42.3992746007       71.1103318454
C                10.1023953334       42.5109454800       70.2149778842
C                 9.8902216070       41.0499479438       69.8501576416
C                11.2288363954       40.3246206137       69.4829931160
O                11.0922666296       39.2020410088       68.9387347204
O                12.2984022512       40.8816923215       69.7587546055
H                10.1715774492       44.9313535753       69.7269197946
H                 8.3053375837       43.0219942057       69.1298242835
H                10.8601693259       42.9228614578       69.5407713808
H                10.4802559115       42.6164950060       71.2327372820
H                 9.4177847196       40.5092415627       70.6720577040
H                 9.2306754392       40.9690515375       68.9832278649
N                 8.1471952242       43.8714488853       72.2728670802
C                 7.2726939982       44.0409595425       73.4112839326
C                 5.8466748116       44.3708700866       72.9588922935
O                 4.8761037005       43.6890296653       73.2619936765
C                 7.7693240801       45.1976573172       74.2826297408
C                 6.7811491335       45.3961585467       75.4277409409
C                 9.1780761382       44.9260997866       74.7942538098
H                 8.9715038317       44.4571690915       72.2274497338
H                 7.2317657334       43.1105733226       73.9928602406
H                 7.7995670033       46.1007945917       73.6663485408
H                 7.0338390977       46.2887128795       75.9949285724
H                 5.7683716576       45.5160167992       75.0555040558
H                 6.8101308715       44.5369083133       76.0937625033
H                 9.5021652259       45.7322708230       75.4481800140
H                 9.2177782580       44.0021851624       75.3673894516
H                 9.8926064136       44.8612441195       73.9807695836
N                 5.7509273607       45.5216315871       72.2811017574
C                 4.4764680275       46.0476697809       71.8326251200
C                 3.7579507987       45.0459063661       70.9215140449
O                 2.5686793387       44.7956338837       71.0724698909
C                 4.6883818836       47.3788857684       71.1276468356
H                 6.5784880984       45.9877468256       71.9346271674
H                 3.8278456907       46.1847056500       72.7086450931
H                 3.7419150173       47.7661564204       70.7614927161
H                 5.1197011920       48.0986232336       71.8178934748
H                 5.3674686579       47.2553570863       70.2868937634
N                 4.5335211976       44.4818695137       69.9915082041
C                 4.0204763283       43.5959757791       68.9695717032
C                 3.4089741146       42.2922263758       69.4961933516
O                 2.5374496543       41.7319174849       68.8400579961
H                 5.4903019037       44.8018580407       69.9000965688
H                 3.2396413403       44.0958121729       68.3854556170
H                 4.8403150158       43.3375196023       68.2977071807
N                 3.8895645136       41.8327345903       70.6623779045
C                 3.4088170763       40.5911209943       71.2496986476
C                 2.2619088121       40.8505424595       72.2230350804
O                 1.2901182683       40.1063302473       72.2645592987
C                 4.5288065517       39.7510949277       71.9008929118
C                 4.1659464499       38.2613440841       71.8554394951
C                 4.8191827760       40.1609267903       73.3373657515
C                 4.3375780416       37.6501621223       70.4711545044
H                 4.7052690572       42.2705563407       71.0706732864
H                 2.9744375618       40.0236380250       70.4169156699
H                 5.4352293944       39.9215465756       71.3090456105
H                 4.8302279019       37.7356033198       72.5422324018
H                 3.1392441136       38.1440867852       72.2047482755
H                 5.6826833715       39.6036656047       73.6944511195
H                 5.0521168060       41.2201832732       73.4085647118
H                 3.9708523742       39.9413011301       73.9821299107
H                 4.0852709473       36.5946994828       70.4938402085
H                 3.7095895018       38.1548846837       69.7414390185
H                 5.3735338276       37.7550926164       70.1545998602
N                 2.4172652528       41.9222017114       73.0045855619
C                 1.3596141123       42.3620037465       73.8846634324
C                 0.1323259161       42.7685432388       73.0706562748
O                -0.9856648994       42.7297610014       73.5602871349
C                 1.7984043973       43.5234846731       74.7859689749
C                 2.2669942745       43.1048193575       76.1851633472
C                 1.1402185322       42.5680796823       77.0773874786
N                 1.5248305754       42.6833746227       78.4782241256
C                 0.7311686860       42.4877425032       79.5259964499
N                -0.5470780251       42.1657550202       79.3922122375
N                 1.2230521289       42.6523542878       80.7611075986
H                 3.2336582396       42.5125615560       72.9141412796
H                 1.0334054888       41.5070419595       74.4922473736
H                 2.6126564335       44.0451238939       74.2801725225
H                 0.9646296671       44.2205677970       74.8843592160
H                 3.0593180549       42.3625306238       76.0899655550
H                 2.6866398521       43.9954641060       76.6551767808
H                 0.2294702580       43.1486340964       76.9037598709
H                 0.9277698036       41.5191831286       76.8506810826
H                 2.4980634525       42.8863196114       78.6580651116
H                -0.9984001266       42.0082985228       78.4952155877
H                -1.1256217643       42.0972876482       80.2110278903
H                 2.1855498700       42.9074677051       80.9273818308
H                 0.6246016313       42.5678651930       81.5639288783
N                 0.3481941563       43.1279361428       71.7971032636
C                -0.7985860284       43.4991759538       70.9846753542
C                -1.6480168810       42.2339319835       70.7478862540
O                -2.8147107051       42.1372756599       71.0952676331
C                -0.3395336363       44.1249001002       69.6707686569
H                 1.2515602100       43.4847668562       71.5050234689
H                -1.4341072586       44.2009571349       71.5424152387
H                -1.2010078272       44.3853990099       69.0632157083
H                 0.2300575787       45.0250901401       69.8863505512
H                 0.2989830755       43.4428632250       69.1143369165
N                 5.4533409340       38.7763941653       78.8401296611
C                 6.6422951759       38.2895203190       78.1494543803
C                 7.8561820801       38.2973993053       79.1011236761
O                 8.3227963229       39.3296128955       79.5775066944
C                 6.7965484948       39.2846689682       77.0026286523
C                 6.3024787585       40.6011197692       77.5951896286
C                 5.1995007824       40.1839004958       78.5835374174
H                 6.4739239815       37.2622060652       77.8200428350
H                 7.8240540770       39.3488247467       76.6611406229
H                 6.1520171936       38.9782554824       76.1785428617
H                 7.1026376285       41.1016511647       78.1369084868
H                 5.9252471174       41.2739864113       76.8299858196
H                 5.2618351053       40.7652203939       79.5054295918
H                 4.2071768476       40.2981813325       78.1382627061
N                12.5866596569       34.0699624143       74.9674383129
C                11.3779812105       34.8495049278       75.1575146304
C                10.2336798310       33.8311179141       75.3063325350
O                10.0986945933       32.9342526183       74.4830527675
C                11.1888691734       35.8916263553       74.0178095341
C                11.7883943604       35.4464958980       72.6878759038
C                11.3592779908       36.3440477779       71.5190449331
C                11.7657116090       35.7191232260       70.1699250557
N                11.1142819355       36.3819475111       69.0029564436
H                12.5769739510       33.4165256470       74.1977372220
H                11.4844335120       35.3824223908       76.1058688513
H                10.1196336976       36.0834579917       73.9167008196
H                11.6534138620       36.8265925736       74.3325680336
H                12.8747254573       35.4506017569       72.7695115190
H                11.4504368133       34.4270304433       72.4924994965
H                10.2790273568       36.4741829666       71.5592853636
H                11.8058469102       37.3320941170       71.6217279775
H                12.8456659535       35.8148572930       70.0527044772
H                11.5121986796       34.6589833264       70.1655419179
H                11.5047672372       36.0434935813       68.1147086110
H                10.0918182709       36.2821902894       69.0088455470
H                11.2759422575       37.4273963996       69.0252538586
N                11.0214916941       45.4787481026       83.2282952264
C                12.0482988472       46.3964253452       82.7928616087
C                11.4758806153       47.6809435873       82.1686477961
O                10.2942143744       47.8815797618       81.9382211373
C                12.9119774788       45.7074472149       81.7404000843
C                14.2250061808       46.4296251141       81.3733794932
O                15.1639338434       46.3593402168       82.2176666402
O                14.3370254246       46.9512479942       80.2505152183
H                10.7792313954       44.7627245456       82.5521523108
H                12.6457419542       46.6954439772       83.6687625290
H                13.1946303569       44.7249963393       82.1256306863
H                12.3175663337       45.5807806291       80.8345045046
N                12.4659021908       48.5333422250       81.8284864574
C                12.2183365097       49.8042969166       81.1781568205
C                11.3049110461       49.4995004722       79.9923828188
O                10.2751152551       50.1273489503       79.7930588453
C                13.5263295525       50.5015449293       80.7531789325
C                14.7421140381       50.1843081002       81.6354546448
C                14.6011796932       50.2094211044       83.2087585116
O                13.5964595514       50.7245403094       83.7365277124
O                15.5680905466       49.6949398480       83.8087512374
H                13.3504950643       48.4478593186       82.3007777458
H                11.6643224583       50.4618902291       81.8646262198
H                13.7683344379       50.1990732523       79.7319625482
H                13.3352079488       51.5741629973       80.7645868234
H                15.1207340676       49.1882423117       81.3954179800
H                15.5370153119       50.8978966719       81.4088461506
N                11.7724679019       48.5470189645       79.1634263995
C                10.9046025078       47.9268019567       78.1754243653
C                10.0692289492       46.8262232769       78.8406027835
O                10.2869833928       46.3925027300       79.9553118888
C                11.7128631493       47.3490416536       77.0213506305
C                12.6613579455       46.2044495342       77.5167391621
O                12.1552154085       45.2491641417       78.1290022901
O                13.8586816063       46.3354200529       77.2006802044
H                12.5307985316       47.9661490023       79.5115258336
H                10.2310099071       48.7205207041       77.8244926143
H                11.0380654062       46.9267214537       76.2752374747
H                12.3050936793       48.1379072977       76.5564487121
N                 9.0339428171       46.3561790784       78.0956831573
C                 8.0222410674       45.5733138356       78.7630219804
C                 8.3835382913       44.1210107323       79.0190936700
O                 7.5215277883       43.3714919959       79.4807530603
H                 8.7810220884       46.8248412718       77.2414163128
H                 7.8531132059       46.0003801990       79.7627703227
H                 7.0843807393       45.6144328543       78.2093460020
N                 9.6037024376       43.6840306914       78.7243128374
C                10.0040724901       42.3856386395       79.2317657396
C                10.2923841324       42.4451144107       80.7324299268
O                10.7012496349       43.4616664128       81.2738073679
C                11.3174892297       41.9614038989       78.5767535203
C                11.1886250349       41.6158244079       77.1188833283
C                10.2870245527       40.6520934812       76.6936253903
C                12.0295962869       42.2108430335       76.1903495910
C                10.2283092548       40.2872114649       75.3600944747
C                11.9648549244       41.8482947316       74.8595060513
C                11.0688412011       40.8814377480       74.4390057809
H                10.3505720789       44.3421839356       78.5200537094
H                 9.1936156610       41.6750726789       79.0406815797
H                12.0162780406       42.7901692648       78.6928920498
H                11.7153465834       41.0994475756       79.1206653986
H                 9.6542018953       40.1699888895       77.4242796227
H                12.7252661915       42.9688909634       76.5218529451
H                 9.5403192468       39.5255819794       75.0345959543
H                12.6028817091       42.3311790425       74.1353975503
H                11.0215294500       40.6110037033       73.3947859139
N                13.1034334872       40.4234338996       82.8369974240
C                14.2552677746       39.5680928753       82.6474820185
C                14.5145778830       38.7376362511       83.9356980714
O                14.4417742103       39.2355355535       85.0613193707
C                15.4888653116       40.4145924793       82.3145488186
C                15.4816871841       41.1278932814       80.9828777525
C                14.5662956937       42.1296581744       80.6502548435
C                16.4921711368       40.8456479576       80.0699533270
C                14.6717868242       42.8576401743       79.4777504182
C                16.5946371323       41.5481153801       78.8851042885
C                15.7044260243       42.5765276119       78.5865778815
O                15.8456658571       43.3315557934       77.4672161713
H                13.2414730062       41.2709476316       83.3653656505
H                14.0178743839       38.8686541701       81.8406501523
H                15.5982677668       41.1543509180       83.1147802750
H                16.3606377237       39.7577977726       82.3402495188
H                13.7575431982       42.3815097549       81.3222154760
H                17.2210724644       40.0776782551       80.2850067927
H                13.9840746528       43.6621663678       79.2627942283
H                17.3936380276       41.3053752358       78.1983550235
H                16.5536685459       42.9640205192       76.9137243647
N                 9.2141687242       32.8427415082       70.0937908923
C                 8.5397506689       33.4679542433       71.2810574857
C                 7.6002249117       32.4175066071       71.9565211247
O                 6.4314147359       32.3372032976       71.6380316353
C                 7.6771304318       34.6661634885       70.8496686958
C                 7.6663554753       35.7147171828       71.9401762959
C                 7.2992544826       35.3756281554       73.2356101784
C                 8.1029674410       37.0129210617       71.6757046892
C                 7.3955944455       36.3216514561       74.2381847050
C                 8.2169060489       37.9564237034       72.6829069021
C                 7.8609644613       37.6000422569       73.9660364673
H                 9.7642363401       33.5404301581       69.5699031171
H                 9.8324383976       32.0691518569       70.3912135179
H                 8.4954440512       32.4609293045       69.4514466978
H                 9.3042641671       33.7857475337       71.9960957407
H                 8.0382286045       35.1190591966       69.9284937852
H                 6.6540668928       34.3182290191       70.6807238387
H                 6.9447633232       34.3841466287       73.4652215741
H                 8.3398394060       37.3163458122       70.6655579480
H                 7.1423441791       36.0747766792       75.2587187135
H                 8.5713402033       38.9532484429       72.4653610584
H                 7.9335325457       38.3135094898       74.7690928763
H                21.2841589617       38.8691469139       75.4686513778
H                21.6929917261       43.3903661530       75.1907711829
H                19.7933550779       42.8992152242       71.1796344545
H                -1.2467202094       41.4408077894       70.2897214428
H                 4.8211511602       38.1358232725       78.8378888339
H                 8.2981642911       37.4370198829       79.3548932066
H                13.2801625992       34.6231437629       74.8156355967
H                 9.5990504222       33.9010499289       76.0759785749
H                11.2954741369       45.0521955530       83.9719258763
H                10.1470357793       41.6360887158       81.3019483912
H                12.7906895959       40.6881208545       82.0356659854
H                14.7488535610       37.7679142715       83.8667474442
H                 7.9602360279       31.8030417518       72.6585360375
