 349 
 
N               -31.2809654345       67.3981652619       17.9037682907
C               -32.6423075612       67.5478589287       17.4209858450
C               -33.0822268609       66.2984275520       16.6592569227
O               -34.2698513160       66.0997695300       16.4394482915
C               -32.7974809433       68.7711734705       16.5332763304
C               -33.0882851824       70.0458789750       17.3335981877
C               -32.2633183113       70.1744296892       18.6194389959
C               -32.8636063227       71.2757025354       16.4590937065
H               -30.7198355731       68.2352507400       17.9693950424
H               -33.3552173891       67.6248170206       18.2625170230
H               -31.8835386844       68.8841541718       15.9472012191
H               -33.6331166835       68.6049823235       15.8524764051
H               -34.1407929698       70.0431331901       17.6489461451
H               -32.5389263115       71.0960427379       19.1382110270
H               -32.4571998758       69.3662186733       19.3256528638
H               -31.1912361590       70.2199688489       18.4270720561
H               -33.2259346441       72.1575214185       16.9835693496
H               -31.7999522039       71.4059526655       16.2682959306
H               -33.4101524734       71.1874480197       15.5255312032
N               -32.1157366205       65.4858707179       16.2314956421
C               -32.3812235557       64.1470934379       15.7536120583
C               -32.6192648129       63.1442356661       16.8919934250
O               -33.5914921666       62.4016207685       16.8556594468
C               -31.2400291643       63.6621174761       14.8619538573
C               -31.5765402186       62.3019426508       14.2359453520
C               -32.6947840034       62.4018638526       13.2051455622
O               -33.8285876187       62.7737865726       13.4662938833
N               -32.3320692663       62.0760880358       11.9530114462
H               -31.1642722873       65.7451441481       16.4465668264
H               -33.3210772382       64.1795062245       15.1899435108
H               -31.0765579871       64.4133013188       14.0873263820
H               -30.3408060704       63.5855440924       15.4764072093
H               -30.6805169245       61.8876265827       13.7787934392
H               -31.9178644432       61.6233778958       15.0191249213
H               -31.4325804148       61.6702956147       11.7606848708
H               -33.0464470307       62.0404614467       11.2433840303
N               -31.6741319892       63.0375128047       17.8499178039
C               -31.8910502929       62.1262363381       18.9661186332
C               -33.1433175453       62.4694282775       19.8066366193
O               -33.5457553738       61.7010307868       20.6703617537
C               -30.5970525074       61.8329613282       19.7634446145
C               -30.4014370935       62.5664021610       21.0987722073
C               -29.3046854754       61.9443861822       21.9609419884
O               -28.8398715648       60.8378268672       21.7655824351
N               -28.8384662498       62.7202232527       22.9620357612
H               -30.9498489355       63.7392826961       17.9242027289
H               -32.2025885386       61.1796585092       18.4953440430
H               -30.5836264317       60.7686743491       20.0007966329
H               -29.7578528011       62.0482711070       19.1029207346
H               -30.1950995311       63.6290612571       20.9688467532
H               -31.3207042940       62.4974747958       21.6890433559
H               -29.2552601694       63.5939389946       23.2388850720
H               -28.2161233374       62.3078402597       23.6397570722
N               -33.8308335223       63.5507498833       19.3911022459
C               -35.0648981571       63.9675456062       19.9972901452
C               -36.2355554520       63.8779387209       19.0193937551
O               -37.2829369201       63.3844222946       19.4661581659
C               -34.9457550724       65.3462858577       20.6548483005
C               -34.1312528913       65.3040780386       21.9249216333
C               -34.7172561351       65.6161670700       23.1452910556
C               -32.7735915044       64.9940422660       21.9361676828
C               -33.9781076721       65.6924358600       24.3116173276
C               -32.0143504322       65.0976699581       23.0909111704
C               -32.5961684532       65.5161081354       24.2816434532
O               -31.8876668307       65.7706185700       25.4137637122
H               -33.3199827698       64.2831920714       18.9165618706
H               -35.2971362342       63.2379257766       20.7883703728
H               -34.4773452953       66.0353799328       19.9457592642
H               -35.9409837042       65.7316730419       20.8810909298
H               -35.7745857207       65.8363298193       23.1953997679
H               -32.2810670017       64.7467091876       21.0129041894
H               -34.4464576041       65.9353640884       25.2522652888
H               -30.9454546374       64.9368014814       23.0861573665
H               -30.9087309529       65.6938699654       25.2476879821
N               -36.1125724757       64.1195075912       17.6931484776
C               -37.2755211097       63.7039069180       16.9287101907
C               -37.5024845206       62.2168682885       17.2604102183
O               -38.6260281496       61.7513755547       17.4861993521
C               -37.0428403388       63.9866887896       15.4475681685
C               -38.3432947472       64.0143808026       14.6426114069
C               -38.0452857789       64.1972633499       13.1511312982
N               -39.2701468720       64.3649420295       12.3779177485
C               -39.3471151388       64.3878335429       11.0460899446
N               -38.2732733443       64.1603111194       10.2979315491
N               -40.5125365750       64.6464601585       10.4532648641
H               -35.5668394716       64.9039876771       17.3471768771
H               -38.1830305585       64.2234311653       17.2742038006
H               -36.5542048748       64.9629244940       15.3941199896
H               -36.3501855654       63.2397759274       15.0556442073
H               -38.8881435789       63.0849222602       14.8201724885
H               -38.9616914056       64.8364923419       15.0134975406
H               -37.4055870478       65.0802022214       13.0411791542
H               -37.5011782235       63.3114939603       12.8127527872
H               -40.0944126850       64.5828380699       12.9178043664
H               -37.3820970185       63.9723818504       10.7271311757
H               -38.3391055900       64.1399901023        9.2925749784
H               -41.3491789383       64.7825170035       10.9956159875
H               -40.5971878049       64.5896291481        9.4508095323
N               -36.3807381059       61.4769332342       17.1990156737
C               -36.3084337288       60.0467936518       17.3962538700
C               -36.3395028797       59.6114298787       18.8657451992
O               -35.8612863947       58.5394431218       19.2316026163
C               -35.0928611688       59.4140522684       16.7146438657
C               -35.2507463726       59.1101141583       15.2294943339
C               -34.4460916628       57.8274297753       14.8082405390
O               -33.6512879285       57.9593200015       13.8576014254
O               -34.6853442356       56.7745726154       15.4293349022
H               -35.4960590702       61.9630491950       17.0897911098
H               -37.2380834952       59.6201973549       16.9814367310
H               -34.2351964997       60.0687274834       16.8813075750
H               -34.9072161587       58.4716002383       17.2383142897
H               -36.2992733588       58.8948552759       15.0097070210
H               -34.9236217913       59.9526049144       14.6185821315
N               -37.0679264504       60.3976759974       19.6789412363
C               -37.4981213350       59.8937966224       20.9567981785
C               -38.8588083409       60.4166253165       21.3421208103
O               -39.7045720566       59.6261853409       21.8197929693
C               -36.4473353108       60.0511240433       22.0629589317
C               -36.9364269231       59.4303316593       23.3597943115
S               -37.4193563933       57.6764013245       23.1956955849
C               -37.4742167777       57.2502629808       24.9710558029
H               -37.2878486851       61.3510217175       19.4324924485
H               -37.6199322607       58.8050923264       20.8306031483
H               -35.5293760932       59.5690650013       21.7191091357
H               -36.2407847860       61.1126330353       22.2317542380
H               -36.1506755778       59.4709836025       24.1161085649
H               -37.8129022744       59.9726489797       23.7146035444
H               -37.8106139436       56.2218833773       25.0215327986
H               -36.4799606560       57.3613580388       25.3915731213
H               -38.1895827179       57.8920936644       25.4777473354
N               -39.2292611789       61.6995358051       21.0516158813
C               -40.6642692335       61.9226993497       21.0371768553
C               -41.3689014040       60.7395355313       20.4062904616
O               -42.2422919777       60.0562313012       20.9562530868
C               -41.0869211902       63.1422643115       20.2366842409
C               -40.7979548138       64.4768638374       20.9126120821
C               -41.5630916123       65.5625196233       20.1679287583
C               -41.2247783982       64.5006128586       22.3742287798
H               -38.6374255528       62.2940577984       20.4899747187
H               -41.0087481789       61.9858363531       22.0779883043
H               -40.5799570971       63.1217945220       19.2688927665
H               -42.1648067639       63.0631738611       20.0608805435
H               -39.7188396352       64.6763763298       20.8603830219
H               -41.3026584558       66.5455806620       20.5582902123
H               -41.3487632158       65.5417570431       19.1028776159
H               -42.6272520037       65.4113485084       20.3237175998
H               -41.1432819928       65.5093380904       22.7790473265
H               -42.2601618371       64.1878136923       22.4637476299
H               -40.6110151876       63.8509676566       22.9936623174
N               -41.0544435427       60.5533718856       19.1125836532
C               -41.7864139811       59.5867445018       18.3313606193
C               -41.5404693252       58.1629783106       18.8184259511
O               -42.4599698442       57.3271046333       18.8126944982
C               -41.4916562199       59.8438170389       16.8427996176
C               -42.1830465386       61.1545252767       16.4398617209
C               -41.9249132221       58.6710912823       15.9701476309
C               -41.8912581179       61.5554514646       14.9989230147
H               -40.2628667924       61.0219231667       18.6978052507
H               -42.8575687381       59.7645647172       18.5198859748
H               -40.4058351714       59.9783176962       16.7590987097
H               -43.2601285414       61.0518528005       16.5915806832
H               -41.8437923769       61.9440949361       17.1153581811
H               -41.5653167900       58.8090566347       14.9563367806
H               -41.5117315227       57.7463696296       16.3636625602
H               -43.0084262759       58.5883023546       15.9722807234
H               -42.2878634060       62.5502604894       14.8156847099
H               -40.8148985631       61.5665983510       14.8421920608
H               -42.3497042075       60.8568991484       14.3071324105
N               -40.2806592184       57.8272205114       19.2191350750
C               -40.0033535140       56.4786363200       19.6766556055
C               -40.7361567447       56.0614782328       20.9654546085
O               -40.8440579825       54.8770673055       21.2545858796
C               -38.5075948969       56.2255304135       19.8130672652
H               -39.6678306232       58.5621363839       19.5351864497
H               -40.4186038720       55.8143402802       18.9055283190
H               -38.3414562223       55.1679350222       19.9847402955
H               -37.9804897586       56.5415610573       18.9161304077
H               -38.1047968029       56.7746184285       20.6610079514
N               -41.3092014806       57.0545583580       21.6562462986
C               -42.1815081957       56.8394240061       22.7827761470
C               -43.6019938651       57.3394753763       22.4798290572
O               -44.3883529241       57.6154365372       23.3813876515
C               -41.6506428179       57.4733871131       24.0603627164
C               -41.1114823190       56.4978952032       25.1182971859
O               -41.3005043267       55.2827459068       25.0259350663
O               -40.5424990138       57.0710145786       26.0955400845
H               -41.0475983051       58.0154444493       21.4800980472
H               -42.2422080410       55.7493715196       22.9391297270
H               -40.8817939460       58.2134155014       23.8296554396
H               -42.4693706966       57.9969898560       24.5614531126
N               -43.9470462845       57.3617801912       21.1898160762
C               -45.2747114931       57.7022770649       20.7307608211
C               -45.7924182415       59.0708097637       21.1784927224
O               -46.9685546561       59.2217871019       21.4877576445
H               -43.2342878654       57.2385626564       20.4751513446
H               -45.2565263829       57.6687858449       19.6415223600
H               -45.9933586979       56.9706087982       21.1142914437
N               -44.9129247626       60.0757440697       21.1451563948
C               -45.2261622970       61.3545279086       21.7309807518
C               -45.3028923470       62.4719098850       20.6933786304
O               -44.4975029949       62.6307011838       19.7734282024
C               -44.1767224583       61.7590659411       22.7774866706
C               -44.0842624153       60.7576933024       23.9293607037
C               -44.4894509335       63.1342375718       23.3411343525
C               -42.6758364321       60.7167754198       24.4988320858
H               -43.9276596603       59.9065387705       20.9634697110
H               -46.2102252951       61.2411747095       22.2018771727
H               -43.2149931564       61.7891436308       22.2587670309
H               -44.7785374504       61.0559395389       24.7192896280
H               -44.3553836010       59.7579193835       23.5935243879
H               -43.7362991803       63.4163427439       24.0758184783
H               -44.4982674304       63.9112859193       22.5811347935
H               -45.4530975588       63.1148926646       23.8377979887
H               -42.6192111398       60.0649243733       25.3677535297
H               -41.9734358343       60.3585531792       23.7494954748
H               -42.3429774623       61.7075188695       24.8140616365
N               -46.3950811063       63.2549105700       20.8996786080
C               -46.6127784340       64.5454272050       20.2812252189
C               -45.7180753607       65.6382666887       20.8782802342
O               -45.7098550406       65.8418967679       22.0951135298
C               -48.0563375006       64.9723166114       20.5585354731
C               -48.3729484406       66.4214260478       20.0748620595
O               -47.6885426342       66.8822421570       19.1306993572
O               -49.3071010368       67.0090790652       20.6441565257
H               -46.7981318242       63.2065221762       21.8249505043
H               -46.4213707528       64.4515704865       19.2136450170
H               -48.7477465386       64.2795475973       20.0777488142
H               -48.2397359242       64.9793046430       21.6356651845
N               -44.9950387082       66.4092145049       20.0674581421
C               -44.4511090637       67.6510665359       20.6081647458
C               -45.5204588438       68.5972179660       21.1449743442
O               -45.4495141338       69.0061937712       22.3446516230
C               -43.6762024313       68.2671526992       19.4366235922
C               -44.2389922950       67.5946961104       18.1851691396
C               -44.7278488057       66.2267931911       18.6547272086
H               -43.7931742527       67.4440237633       21.4692936567
H               -43.8007756869       69.3520172929       19.4142593172
H               -42.6069017760       68.0818359253       19.5530723384
H               -45.0849428805       68.1803375092       17.8302460746
H               -43.4814904341       67.5400711322       17.4077916985
H               -45.6459781959       65.9577222929       18.1332693708
H               -43.9676230488       65.4495604624       18.5280176454
N               -46.6914286461       68.7236342138       24.6938178815
C               -45.7340226448       68.2568693825       25.6633453887
C               -44.5819760007       69.2250806985       25.8879970951
O               -44.0996713501       69.4785711483       27.0424158231
C               -45.2761555875       66.8458586800       25.2466523104
C               -46.2399724503       65.7290191816       25.7141754839
C               -47.0177759760       65.0570990900       24.5840625719
C               -45.4647478917       64.6713431769       26.4968527811
H               -46.3423198882       68.5848534990       23.7362702124
H               -46.2426138534       68.1971039305       26.6419313761
H               -45.1583328041       66.8444563688       24.1610606373
H               -44.2757134951       66.6924306992       25.6734169938
H               -46.9636066851       66.1964125190       26.3959796208
H               -47.3604576504       64.0843669578       24.9243091097
H               -47.8815156856       65.6515682609       24.3071239056
H               -46.3875291085       64.9616874797       23.7164152095
H               -46.1394918837       63.9352417947       26.9273900295
H               -44.7440331866       64.1778141736       25.8528266013
H               -44.9053490113       65.1428019826       27.3019746703
N               -46.5184700156       58.4701375334       31.5539173639
C               -46.3568865984       59.6514876412       30.7407287692
C               -45.6319507559       60.7536411938       31.5056964986
O               -44.5572607801       61.2437595760       31.1180940320
C               -47.7354500257       60.1056736924       30.2734195308
C               -47.7078517130       61.5245556046       29.7011804507
C               -48.7432486428       61.7263844439       28.5974901896
N               -48.3133732685       61.0521939422       27.3891234919
C               -48.5419107115       61.4386183262       26.1179287868
N               -49.3565044579       62.4914184593       25.8304509027
N               -48.1528311369       60.6043498634       25.1102900423
H               -47.4190392893       58.3746975051       32.0140239490
H               -45.7148096079       59.3963938726       29.8838606031
H               -48.0894920926       59.3839113752       29.5355108053
H               -48.4128138861       60.0636654909       31.1274180419
H               -47.8880861559       62.2509679754       30.4920153035
H               -46.7186526556       61.7424847946       29.2882697814
H               -49.7125772433       61.3274505248       28.9154470070
H               -48.8500761389       62.7931746793       28.3917707492
H               -47.8120478100       60.1862775303       27.5154555947
H               -49.4154541230       63.2493210229       26.4950895324
H               -49.3420567024       62.8420227916       24.8844379914
H               -47.4290472944       59.9281388450       25.2957212381
H               -48.1417226687       60.9745970974       24.1736419358
N               -41.8858964130       60.2530019573       31.9970313798
C               -41.0906353141       60.7594657687       30.8954404934
C               -40.8647954487       62.2625694078       31.0487573218
O               -39.7412025299       62.7527357587       30.9125847596
C               -41.6902868911       60.4013286518       29.5306109963
C               -41.0946421932       59.1122615432       28.9535704575
C               -41.4594973835       57.8685139255       29.7653394829
C               -40.4962910655       56.6990580126       29.5577355256
N               -40.8226181760       55.8625346781       28.3800656599
H               -42.8368066945       59.9795994198       31.7782440543
H               -40.0863308454       60.3146239476       30.9638169632
H               -42.7759760641       60.3223153822       29.6214756110
H               -41.4897537517       61.2203301135       28.8307721793
H               -41.4193030133       59.0029111150       27.9146409407
H               -40.0087149556       59.2298441385       28.9393832504
H               -41.4551485252       58.1474195889       30.8179317464
H               -42.4778369817       57.5585403512       29.5173808814
H               -39.4817906055       57.0856224468       29.4425431481
H               -40.5474204712       56.0538696158       30.4357109097
H               -40.2261714867       55.0324910265       28.3385832048
H               -41.8096270887       55.5727317450       28.3902394558
H               -40.6739522912       56.3895746080       27.4222003422
N               -37.3173557093       64.1936909995       30.5481240378
C               -36.9712374993       65.0709968223       29.4658628643
C               -36.6773358868       66.4518632005       30.0315710305
O               -35.6549183100       67.0957442278       29.6692673084
C               -38.0670824648       65.0886567659       28.3955277136
C               -38.2076067495       63.8554778067       27.5306696128
C               -38.4625491673       64.0338524462       26.1712932325
C               -38.1896367396       62.5449569912       28.0083365359
C               -38.7936391825       62.9724891639       25.3304146610
C               -38.5248091658       61.4700233189       27.1768134087
C               -38.8856809660       61.6852201305       25.8514455062
O               -39.3492963540       60.6835907179       25.0271428367
H               -38.2891723062       64.1304604868       30.8213492552
H               -36.0348566449       64.7139023527       29.0093905591
H               -39.0194511713       65.2884160696       28.8998020578
H               -37.8782332788       65.9468477817       27.7413651552
H               -38.4246827064       65.0304504371       25.7437117620
H               -37.9502208891       62.3513806595       29.0390517489
H               -38.9873572189       63.1335642305       24.2762291904
H               -38.5269658477       60.4628419731       27.5646326357
H               -39.4684581945       59.8721406394       25.5477646255
N               -37.9984203451       72.0580756576       17.2386323581
C               -38.6258047335       70.8152299777       16.8820780267
C               -40.1548802549       70.9158958906       16.7548307236
O               -40.8888286181       69.9436583884       16.9954876115
C               -38.2381208853       69.6845235830       17.8322391644
C               -37.1922716003       68.7664273755       17.2362143923
S               -36.9184960478       67.2312866284       18.1907082296
C               -38.6362909021       66.6666784764       18.3633770403
H               -38.2096892266       72.4244954190       18.1553429508
H               -38.2505021024       70.5916891491       15.8684892660
H               -37.8902601890       70.1089839330       18.7823605742
H               -39.1533873231       69.1246236716       18.0422915636
H               -37.4762047666       68.4703629940       16.2254649959
H               -36.2151019179       69.2512499928       17.2065997965
H               -38.5827040574       65.6467170565       18.7333846934
H               -39.1682270645       67.2786579829       19.0902931185
H               -39.1315338685       66.7086401719       17.3988708582
H               -31.2931403371       67.0516876038       18.7343132950
H               -46.2708225612       68.8911776908       20.5529084934
H               -47.4619065282       68.2683639659       24.7891742369
H               -44.1666551093       69.6970881484       25.1103612392
