 406 
 
N                 6.6538232221       34.6849847059      -15.4790305861
C                 7.7162461798       33.9236857504      -14.8509133854
C                 7.2678496590       33.6473726866      -13.4106650218
O                 6.9790014237       34.5749272766      -12.6648340951
C                 9.0338537741       34.6997105267      -14.8325593590
S                10.3679039567       33.6173409364      -14.1441009716
H                 6.1698991821       35.3423655985      -14.8797523862
H                 7.8437133965       32.9851652281      -15.3972153815
H                 9.3267830833       34.9872101170      -15.8404170573
H                 8.9587572739       35.5739651827      -14.1892310957
N                13.6890807839       33.6843689799      -14.7876616584
C                13.8629287123       34.7435188542      -13.8207768559
C                14.3320984247       34.2441802427      -12.4490801336
O                14.8001992070       35.0460566108      -11.6429959428
C                12.6175935651       35.6019477669      -13.6285948716
S                11.2648278710       34.7679355389      -12.7372229626
H                12.7758499224       33.2610712998      -14.8824150711
H                14.6553398191       35.4006330012      -14.2050042415
H                12.8595372867       36.4472691016      -12.9825801253
H                12.2566956592       35.9792217946      -14.5838411299
N                16.6951932681       37.4099037593      -12.2205068576
C                16.4067295532       38.7209610190      -12.7704377279
C                15.9794218008       39.6619924335      -11.6457824493
O                15.1918663795       39.3157361183      -10.7737924693
C                15.2954177646       38.6558724208      -13.8319552234
C                15.8006070794       37.9941075242      -15.1139059911
C                14.6821076002       37.4542858609      -16.0003059827
O                13.4952418797       37.5616894378      -15.7395406867
N                15.1304914057       36.8386870270      -17.1071029718
H                15.9467593032       36.9375348015      -11.7290264649
H                17.3394091347       39.0771364344      -13.2200716163
H                14.4537870204       38.0908524884      -13.4272592639
H                14.9298575343       39.6640176131      -14.0358270016
H                16.3902876106       38.7049237464      -15.6932938757
H                16.4455808274       37.1505433089      -14.8527437615
H                16.1165831035       36.6795831704      -17.2270273914
H                14.5006186234       36.2837505769      -17.6728712988
N                16.5603611146       40.8737831975      -11.6434927381
C                16.0356557807       41.9006080948      -10.7568171692
C                14.5524043031       42.1152857081      -11.1026395494
O                14.1394409703       41.8953224328      -12.2284980656
C                16.7786291717       43.2229678023      -10.9586401473
C                18.2667311788       43.0671119276      -10.6674752520
O                18.6760598649       42.6878305091       -9.5766599645
N                19.0866881990       43.3471588306      -11.6812118981
H                17.0438499423       41.1844754440      -12.4738977828
H                16.1219628873       41.5538477383       -9.7212548187
H                16.6045520984       43.5831631210      -11.9733527482
H                16.3642693359       43.9519905019      -10.2587997518
H                20.0840533039       43.2869391354      -11.5340479298
H                18.7503455373       43.7099773814      -12.5580099439
N                13.7833793023       42.5986558842      -10.1180876097
C                12.3973087377       42.8843683691      -10.3992941886
C                11.5359197766       42.9402521606       -9.1533591117
O                11.9727800638       42.7555189961       -8.0247710336
H                14.0836526802       42.5962705659       -9.1485213020
H                12.3108350011       43.8446144596      -10.9255001840
H                12.0001862267       42.1202584245      -11.0780663394
N                10.2680306336       43.2573351207       -9.4232842965
C                 9.2223849164       43.2705026549       -8.4202600648
C                 8.5261439455       41.9081319406       -8.4868176835
O                 8.0510649847       41.5161199797       -9.5516862993
C                 8.2270046550       44.3944424962       -8.7070847707
C                 7.1825315309       44.5677143549       -7.5984829852
C                 7.8398825233       44.9818367587       -6.2822482095
C                 6.1576730166       45.6140536070       -8.0274044749
H                 9.9758051300       43.3176230608      -10.3944864154
H                 9.7054331623       43.4036385023       -7.4503037566
H                 8.7829239054       45.3266085844       -8.8322540188
H                 7.7306232840       44.1668261992       -9.6542799399
H                 6.6695776482       43.6110670204       -7.4512816497
H                 7.0885289623       45.3346144714       -5.5827561650
H                 8.3700405853       44.1527222979       -5.8219771615
H                 8.5450217579       45.7944206793       -6.4462941504
H                 5.3880677499       45.7155016661       -7.2681550324
H                 6.6456937167       46.5773191508       -8.1534812936
H                 5.6925763447       45.3316914185       -8.9688890891
N                 8.4978813637       41.2247107063       -7.3521482090
C                 8.0168611733       39.8730145489       -7.2086616807
C                 6.9766262716       39.7925042547       -6.0864360148
O                 7.0370407552       40.4791553417       -5.0741755632
C                 9.1792214899       38.9433548901       -6.7988667600
C                10.1564662576       38.6965040476       -7.9131761563
C                11.2873569730       39.4867946289       -8.0725185552
C                 9.9591575297       37.6456339197       -8.8007157883
C                12.2130118986       39.2186158996       -9.0654997614
C                10.8756946818       37.3632580972       -9.7914937985
C                12.0230338316       38.1426418982       -9.9273442716
O                12.9015692678       37.8229691959      -10.9095982573
H                 8.9246754305       41.6022538999       -6.5098694771
H                 7.5775187078       39.5454601467       -8.1544123546
H                 9.6872627774       39.4116815652       -5.9536564732
H                 8.7501104056       37.9932764078       -6.4793327329
H                11.4542554604       40.3234876928       -7.4086409444
H                 9.0734938596       37.0350991190       -8.7143256964
H                13.1014054364       39.8272627888       -9.1710525733
H                10.7306128388       36.5333301102      -10.4661553949
H                13.7170764872       38.3594856427      -10.8249719372
N                 4.9633328262       41.3412107711       -1.1031276231
C                 5.5417023599       41.9809525477       -2.2666017404
C                 6.9653708676       42.4344115310       -1.9280858459
O                 7.1816533158       43.1525421497       -0.9604326417
C                 4.6980431823       43.2051190735       -2.6672624430
O                 3.3388367742       42.8397039070       -2.5734599276
C                 5.0863694074       43.6510970350       -4.0726749601
H                 4.5782377837       41.9515992597       -0.3989769103
H                 5.5657995112       41.2481594113       -3.0759660569
H                 4.9147622625       44.0108649429       -1.9469924715
H                 2.7971507237       43.6183752788       -2.7494441543
H                 4.5000015599       44.5161809988       -4.3719319327
H                 6.1403877787       43.9078377747       -4.1003759033
H                 4.9045395710       42.8460334972       -4.7795584923
N                 7.9076817713       41.9791262602       -2.7542174578
C                 9.3092692623       42.2421383905       -2.5455673708
C                 9.9754492994       42.6020053258       -3.8708138293
O                 9.7507769102       41.9799422048       -4.8998757726
C                10.0468307890       40.9889929659       -2.0133725632
C                 9.5301768113       40.5580105010       -0.6703923876
C                10.1942032761       40.9048475915        0.5009420074
C                 8.3646700127       39.8089853656       -0.5700733376
C                 9.7028798573       40.5387990350        1.7417615865
C                 7.8616180689       39.4431272557        0.6632424466
C                 8.5117863164       39.8186382336        1.8341187793
O                 8.0331289869       39.5006047543        3.0645590220
H                 7.6712019179       41.4185483220       -3.5692318202
H                 9.3853984359       43.0601678577       -1.8231841983
H                 9.9028692036       40.1917841648       -2.7452149315
H                11.1089711773       41.2257530716       -1.9570280065
H                11.1089789629       41.4741089682        0.4454625434
H                 7.8369928831       39.5083177018       -1.4628049689
H                10.2113945073       40.8147729187        2.6522832642
H                 6.9552483738       38.8603074780        0.7261055802
H                 7.1564735114       39.0894406730        2.9955202550
N                10.8388185997       43.6232685864       -3.8058395751
C                11.7994369340       43.9078678635       -4.8582009957
C                13.0638619925       43.1106795265       -4.5050111454
O                13.5921804703       43.2061003407       -3.4058187082
C                12.0789176848       45.4029520247       -4.9231059718
C                12.9902268458       45.7706722388       -6.0872827047
C                13.0870019456       47.3028187448       -6.2047040984
O                12.0764371754       47.9927710570       -6.0778177797
O                14.2473197466       47.7690833246       -6.4182947142
H                11.0648130857       44.0315561943       -2.9098444667
H                11.3908712692       43.5450777571       -5.8041355023
H                11.1356426896       45.9427443389       -5.0381905861
H                12.5444461391       45.7180430612       -3.9851030008
H                13.9939809546       45.3632555683       -5.9510700948
H                12.5832348486       45.3811574923       -7.0249061977
N                13.4485548820       42.2462277442       -5.4452762235
C                14.5443318981       41.3224607640       -5.2740733690
C                15.5707998808       41.5146376264       -6.3841848342
O                15.2799995092       42.0082939590       -7.4736122337
C                14.0428364667       39.8690349352       -5.2851505876
C                12.9586210850       39.5980122031       -4.2342745387
C                12.4048458568       38.1847402256       -4.3989415333
C                13.5123913540       39.7924589210       -2.8251583972
H                13.0427316646       42.2968187986       -6.3716542116
H                15.0277689199       41.5475331500       -4.3203555193
H                13.6505485705       39.6448858803       -6.2807291812
H                14.9062225109       39.2254695839       -5.1040147902
H                12.1420626241       40.3096828810       -4.4039695776
H                11.5613463841       38.0324969404       -3.7304653230
H                12.0732173540       38.0236556367       -5.4225066857
H                13.1708900510       37.4496288143       -4.1679859754
H                12.8077915571       39.4063346628       -2.0934872148
H                14.4596703462       39.2664104366       -2.7297655752
H                13.6788133884       40.8506418588       -2.6437643915
N                16.7927006814       41.0954563780       -6.0549196696
C                17.9328540204       41.2884309288       -6.9116539885
C                18.6184893940       39.9728742424       -7.2650967108
O                18.4548992041       38.9311236867       -6.6384062800
C                18.9575528393       42.2255511962       -6.2416823527
C                18.3055274648       43.5010886698       -5.8472147575
N                17.6496675480       44.3148193011       -6.7349142325
C                18.1520768566       44.1033006281       -4.6319680483
C                17.1330692927       45.3463533143       -6.0247186013
N                17.4261962407       45.2495204947       -4.7564197655
H                16.9711676652       40.6887247829       -5.1275794232
H                17.5693288478       41.7472231610       -7.8369159953
H                19.3550872191       41.7366218542       -5.3504144440
H                19.7729725455       42.4079951145       -6.9433278771
H                17.5582912257       44.1395926499       -7.7224897234
H                18.5320666626       43.7886076861       -3.6826122031
H                16.5466149757       46.1354203576       -6.4568860812
N                 6.0250888535       35.0256870731       -8.3509580247
C                 5.6794264267       35.5324220304       -9.6615592937
C                 6.3463597221       36.8937247243       -9.8656552980
O                 6.3364416267       37.7623609385       -8.9966433050
C                 4.1428107279       35.6378505181       -9.8186856701
C                 3.7878488737       36.2349991655      -11.1806693166
C                 3.5323074090       36.4442789725       -8.6817944602
C                 2.2893583916       36.1949655679      -11.4548324063
H                 5.9449108774       35.6802293373       -7.5800098783
H                 6.0689743425       34.8321239627      -10.4054546864
H                 3.7545372682       34.6141991277       -9.7734489025
H                 4.1418185767       37.2672066284      -11.2368534975
H                 4.3067913645       35.6745298251      -11.9621204010
H                 2.4507281037       36.4432325902       -8.7629149442
H                 3.8029780580       36.0111441495       -7.7223210559
H                 3.8885084768       37.4704120479       -8.7273911064
H                 2.0913598882       36.5222250665      -12.4723478842
H                 1.9190335669       35.1804571367      -11.3369251549
H                 1.7483723292       36.8543072800      -10.7828023882
N                 6.9661134327       37.0408279862      -11.0404898189
C                 7.5594511618       38.2931637508      -11.4696094342
C                 6.4127241021       39.1997487433      -11.9428122881
O                 5.6999495145       38.8521085769      -12.8775734216
C                 8.5125324019       37.9988993193      -12.6275494258
C                 9.6519500182       39.0035909323      -12.8144354239
C                10.3781544610       38.6928383484      -14.1213911555
C                 9.1590339322       40.4445979625      -12.8193982124
H                 6.8669226479       36.3183386415      -11.7393035313
H                 8.0834780476       38.7384333525      -10.6183846627
H                 8.9566127312       37.0173451802      -12.4465079129
H                 7.9127818509       37.9541028221      -13.5415087529
H                10.3568762494       38.8873089642      -11.9838810989
H                11.2402630853       39.3440567886      -14.2450742337
H                10.7358685858       37.6683380586      -14.1260711763
H                 9.7090734713       38.8349869421      -14.9670376101
H                 9.9556135357       41.1126129045      -13.1425214054
H                 8.3123141418       40.5645796487      -13.4932602625
H                 8.8621997006       40.7510029736      -11.8211931698
N                 6.2267306365       40.3226947964      -11.2461413092
C                 5.2294178933       41.3045898365      -11.6078055076
C                 5.7351376557       42.3392349119      -12.6181765473
O                 5.0304881579       42.7124958686      -13.5426198473
C                 4.7444592769       42.0798878561      -10.3798900915
C                 3.9580569364       41.2534455276       -9.3536450024
C                 3.8256382286       42.0805596732       -8.0743166736
C                 2.5754493109       40.8599110503       -9.8663549297
H                 6.8695237282       40.5754362389      -10.5020024672
H                 4.4044840933       40.7776945737      -12.0993271808
H                 5.6251682313       42.4980620322       -9.8868467949
H                 4.1199621595       42.9048683960      -10.7287500477
H                 4.5279614269       40.3418575881       -9.1383694329
H                 3.1630150803       41.5911188322       -7.3666189297
H                 4.7964234954       42.2169865329       -7.6022075262
H                 3.4123420362       43.0586493200       -8.3049955337
H                 2.0563008749       40.2660848382       -9.1184731831
H                 1.9840737601       41.7466317463      -10.0814870975
H                 2.6502265045       40.2681089332      -10.7754455662
N                 6.9483003728       42.8667353952      -12.3817417044
C                 7.4637450860       43.9425139336      -13.2088132394
C                 8.9884676056       44.0289527387      -13.1391346236
O                 9.6382504854       43.5050535253      -12.2401383804
C                 6.8660002353       45.2803294984      -12.7568672145
H                 7.5343284617       42.5426750122      -11.6233532542
H                 7.1563801894       43.7475580140      -14.2424139461
H                 7.3141800352       46.1104209709      -13.2965054430
H                 5.7974547801       45.2671029733      -12.9444089155
H                 7.0432171620       45.4213512160      -11.6930742261
N                 9.5316032277       44.7161878438      -14.1554745682
C                10.9063768350       45.1571879135      -14.1982588572
C                11.0226230172       46.7303594100      -14.0358925689
O                12.1834528099       47.1541139870      -13.9286148876
C                11.5566999065       44.7896536742      -15.5360974026
C                11.6332183951       43.2841955381      -15.6686016679
O                12.5754036228       42.6257105298      -15.2589389232
N                10.5743851683       42.7225328113      -16.2839711694
O                 9.9601101336       47.3662788838      -14.0407840955
H                 8.9201708656       45.3218305759      -14.6911989060
H                11.4622269256       44.7230028422      -13.3616152652
H                10.9790794677       45.2347823456      -16.3473399239
H                12.5611738992       45.2126328345      -15.5288715492
H                10.5218338135       41.7173960095      -16.3264676611
H                 9.7659026052       43.2645061876      -16.5339009663
N                 4.4821715346       52.5852852285      -13.0784893505
C                 5.0565480762       52.4045771701      -11.7647571622
C                 6.0775523943       53.5023087336      -11.4748581261
O                 6.6105770320       54.1649658126      -12.3583009763
C                 5.6573626828       50.9951726504      -11.6168917832
C                 6.6902323068       50.6497883014      -12.6724131610
S                 6.9538715416       48.8382746642      -12.7284291794
C                 7.8888356176       48.6199275078      -11.1980975511
H                 5.0248614875       53.1229342633      -13.7494978464
H                 4.2522513746       52.4788058009      -11.0237488392
H                 6.0727927085       50.9023803426      -10.6161163098
H                 4.8362713817       50.2833565607      -11.7082480933
H                 6.3320627374       50.9108629959      -13.6666327826
H                 7.6531118235       51.1310950625      -12.5017688228
H                 8.2777251086       47.6068812602      -11.2098996558
H                 8.7209149896       49.3180110118      -11.1937042699
H                 7.2361016177       48.7673327890      -10.3430777696
N                 9.0021943600       54.7257479575       -8.0241914380
C                 9.7847075550       54.3140448437       -6.8727833778
C                10.5522643904       55.5309996242       -6.3747810435
O                11.1806509682       56.2288357048       -7.1719658299
C                10.7707625200       53.1974227930       -7.2702703420
C                11.5027695546       52.5740232686       -6.0851883330
C                12.5427807246       51.5547406635       -6.5594987503
C                13.3902155850       51.0512161757       -5.3971836506
N                14.5489899698       50.2671669327       -5.8801886921
H                 9.4028187644       55.4250893674       -8.6405499862
H                 9.1045485405       53.9469860086       -6.1013637888
H                10.2042427752       52.4229111630       -7.7889532973
H                11.5003344123       53.6136057359       -7.9691512841
H                12.0095150380       53.3541991829       -5.5116483491
H                10.7824668006       52.0851074584       -5.4280589439
H                12.0472038099       50.7095672889       -7.0380903440
H                13.1960878148       52.0411867519       -7.2873145662
H                13.7431360484       51.9107553325       -4.8204796209
H                12.7946981730       50.4038174095       -4.7531308382
H                15.2521656325       50.1802750302       -5.1454248777
H                14.3001155410       49.1846898953       -6.1807312690
H                14.9726933457       50.7162088835       -6.6949580085
N                -0.5793146770       48.3232074324       -6.2960785876
C                 0.2039833216       47.6082303550       -5.3056715794
C                 1.3362664552       48.5391739943       -4.8720283981
O                 2.1083111942       49.0152062768       -5.7021690058
C                 0.7640045227       46.3189642491       -5.9179629424
C                 1.1193565918       45.2160847988       -4.9184378964
C                -0.1128165040       44.7196627805       -4.1705327199
C                 1.7587826497       44.0649999749       -5.6907132489
H                -0.1150900724       48.5775774597       -7.1629162314
H                -0.4578374511       47.4013941121       -4.4630004292
H                 0.0200679560       45.9340166856       -6.6168620976
H                 1.6555298964       46.5780774634       -6.4874501594
H                 1.8387123232       45.6173395420       -4.1936900844
H                 0.1080927902       43.8088953107       -3.6219171717
H                -0.4628760536       45.4551309912       -3.4552043070
H                -0.9173476476       44.5093734745       -4.8692515720
H                 2.0388218281       43.2617631520       -5.0160288587
H                 1.0524771266       43.6718621322       -6.4176781170
H                 2.6451907107       44.4028945169       -6.2220257855
N                 4.6854366436       48.8514137612       -2.4026515201
C                 5.6959013313       48.0081543900       -1.8096882347
C                 6.8594252726       48.8778286545       -1.3714850115
O                 6.9971170021       50.0248504587       -1.7765911472
C                 6.1983794497       46.9551752478       -2.8266761624
C                 6.9490268138       47.6155751885       -3.9482557861
C                 8.3338249947       47.7404386199       -3.9014757094
C                 6.2722630140       48.1497632435       -5.0361729858
C                 9.0251014274       48.4064238250       -4.8921633529
C                 6.9517127395       48.8160140603       -6.0399860594
C                 8.3307057280       48.9672182806       -5.9604050163
O                 9.0378524006       49.6658235525       -6.8887490826
H                 5.0057543235       49.6808711198       -2.8959746064
H                 5.2558041403       47.5044597459       -0.9422507690
H                 6.8319141360       46.2368645168       -2.3053418103
H                 5.3196570985       46.4344385241       -3.2077592697
H                 8.8773569001       47.3018918222       -3.0772878065
H                 5.1984290824       48.0519129184       -5.1048578923
H                10.1000511266       48.4925481852       -4.8859173638
H                 6.4065422433       49.2324247505       -6.8767763504
H                 8.4427929527       49.9915619768       -7.5773228565
N                12.9937692569       52.7605429574        0.8749619138
C                12.3556673337       53.1673697846       -0.3609519585
C                10.9489706047       52.5899513610       -0.4247735305
O                10.6238235439       51.6270190884        0.2587127837
C                13.1485886906       52.6231234309       -1.5786593783
C                13.1974195001       51.1229244757       -1.5855691671
C                12.1866528647       50.3766305044       -2.1836070666
C                14.2407103706       50.4445545797       -0.9671900231
C                12.2171432972       48.9962247406       -2.1657207579
C                14.2834888376       49.0625370430       -0.9408463326
C                13.2670388369       48.3276666300       -1.5405405776
O                13.2507583167       46.9658262678       -1.5346303691
H                12.5530009966       51.9923585650        1.3727982712
H                12.3431734251       54.2585335511       -0.4376718851
H                12.6846088045       53.0077514769       -2.4864249227
H                14.1531386490       53.0380749890       -1.5066584880
H                11.3712445443       50.8795239896       -2.6816816258
H                15.0355771530       51.0008215941       -0.4928821093
H                11.4509300577       48.4172774562       -2.6573500145
H                15.0964575613       48.5538913339       -0.4423233940
H                14.0644174170       46.6234846186       -1.1415492747
N                 2.7593203252       50.2407300850       -8.3509580247
C                 2.4933061926       49.6880101637       -9.6615592937
C                 0.9809168297       49.5849399931       -9.8656552980
O                 0.2336148493       49.1420325635       -8.9966433050
C                 3.1703102933       48.3045476887       -9.8186856701
C                 2.8306453220       47.6985673820      -11.1806693166
C                 2.7771744250       47.3726220783       -8.6817944602
C                 3.6145606755       46.4208533560      -11.4548324063
H                 2.2325590846       49.8440227888       -7.5800098783
H                 2.9050081515       50.3755175885      -10.4054546864
H                 4.2509551319       48.4801187043       -9.7734489025
H                 1.7597425856       47.4890104054      -11.2368534975
H                 3.0565547634       48.4282194323      -11.9621204010
H                 3.3188702712       46.4364701148       -8.7629149442
H                 3.0169448604       47.8235971479       -7.7223210559
H                 1.7104165801       47.1680347142       -8.7273911064
H                 3.4301448879       46.0857518728      -12.4723478842
H                 4.6783131617       46.6073968657      -11.3369251549
H                 3.3140470343       45.6226748267      -10.7828023882
H                13.8370057984       52.4959834255        0.7047843915
H                10.2684103493       52.9973535722       -1.0337572554
H                 3.6271233165       50.1207028463       -8.1447750231
H                 0.5712582959       49.8831170937      -10.7277865539
H                 6.9916666660       35.1669716205      -16.1598759588
H                 7.2102657236       32.7065455113      -13.0767064665
H                13.8844801934       33.9933121836      -15.6100807532
H                14.2559284203       33.2744380348      -12.2171357851
H                16.9348773072       36.8516835517      -12.8845413154
H                 6.2067624423       39.1588813615       -6.1628016718
H                 4.2874424955       40.8052432249       -1.3598590979
H                19.2412937790       39.9276975903       -8.0461689022
H                 5.4872407199       34.3341612565       -8.1447750231
H                 4.3511077167       51.7817945568      -13.4621884723
H                 6.3376530149       53.7066563344      -10.5311475109
H                 8.8418293735       54.0124407054       -8.5490493571
H                10.5456963722       55.7626119682       -5.4019950530
H                -1.2845064518       47.8206511196       -6.5413166624
H                 1.4543998373       48.7662167849       -3.9053350262
H                 4.2158455101       48.3779663578       -3.0070782927
H                 7.5407633651       48.5175548755       -0.7343184650
