 460 
 
N                65.6703484488       53.8617538120      209.4439221619
C                64.7278361006       52.7540782464      209.3013819833
C                64.1429486153       52.3439577093      210.6561495119
O                62.9356983376       52.0679791125      210.7811470165
C                65.3086784627       51.5768250203      208.5356967514
C                65.8090839280       51.9730200215      207.1793790171
C                64.2985452681       50.4772592765      208.5278572831
C                66.5480715657       50.8900365542      206.4590532361
H                66.5028587847       53.6819780845      209.1407306306
H                63.9691413927       53.1135898270      208.7485339050
H                66.1271035625       51.2398829240      209.0337056658
H                65.0169026443       52.2059504759      206.6218979176
H                66.3989463149       52.7528135990      207.2563792023
H                64.6713511258       49.6744425452      208.0492148780
H                64.0673763876       50.1948987794      209.4531546772
H                63.4857426107       50.7713081005      208.0613244495
H                66.7814190236       51.1709716041      205.5505774734
H                67.3926571100       50.6814662993      206.9629437424
H                66.0001674138       50.0626410711      206.4271616789
N                65.0196321896       52.2342953131      211.6907877396
C                64.5986891938       51.8853382073      213.0445779598
C                63.5575796720       52.8961742871      213.5425575930
O                62.4858449198       52.5414286110      214.0364592205
C                65.7370767215       51.7311421169      213.9917077470
C                66.2726239636       50.3374627512      214.3660754645
C                67.2945204251       50.2583369551      215.5969052596
C                68.3570662827       49.1361542291      215.4340539112
N                69.1887306597       49.1909492212      214.0551964327
H                65.9083435976       52.3641991006      211.6164163883
H                64.1467258307       50.9818026718      212.9829792826
H                66.5132337090       52.2518627979      213.6318588467
H                65.4762051817       52.1589102295      214.8669233694
H                65.5154975775       49.7458923634      214.5768217560
H                66.7521029657       49.9638080933      213.5597220240
H                67.7786149709       51.1321002761      215.6286404840
H                66.7930148642       50.1151065390      216.4051616091
H                68.9903757733       49.1804379677      216.1669312043
H                67.8842529320       48.2608347518      215.4295981701
H                69.7936605665       48.5187535979      214.0642893716
H                68.6219931955       49.1197782111      213.3663572212
H                69.6218423207       49.9984739977      214.0352918305
N                63.8552196541       54.1975942635      213.4301590627
C                63.0687430412       55.2152226701      214.0207962944
C                61.6775182542       55.1940773904      213.4279975677
O                60.6405850796       55.2232316063      214.1266486279
C                63.7144144605       56.5372949387      213.9104410560
C                62.7245424878       57.6171632659      214.3172523455
C                64.9957790986       56.5664982641      214.6248791962
H                64.5911564440       54.4827474351      212.9665291910
H                62.9610976656       54.9954972252      214.9938663394
H                63.9571916707       56.7733785290      212.9539969682
H                63.1673780927       58.5191320134      214.3004088789
H                61.9523271590       57.6289967465      213.7200129339
H                62.4310806171       57.4418488852      215.2513174668
H                65.4604559821       57.4482891398      214.5145879262
H                64.8190189423       56.4529242805      215.6131164793
H                65.5857339723       55.8501646419      214.3254383393
N                61.6299345440       55.1761115125      212.0676272935
C                60.4325609460       55.1998891108      211.2841067092
C                59.5699453390       53.9744031344      211.5864940479
O                58.3429664316       54.0425443543      211.7830711774
C                60.7486538294       55.3569581245      209.8355317777
C                61.1432960222       56.7946883317      209.5864826321
C                59.6255321597       54.8165274829      208.9235195545
C                61.5630651897       56.8902965789      208.1466368896
H                62.3773195678       55.1531087856      211.5670056622
H                59.8700977266       55.9916791922      211.5826935412
H                61.5202542762       54.7647457622      209.5854359876
H                60.3758996888       57.3846686705      209.7058290109
H                61.8952606860       57.0495967608      210.1431091293
H                59.8549617394       54.9489581599      207.9888556569
H                59.4727812829       53.8614567294      209.1190939607
H                58.7893667296       55.3242203549      209.1432758319
H                61.8444269945       57.8532680386      207.9779921769
H                62.3489163013       56.3191329184      207.9951529296
H                60.8330087538       56.6663361944      207.5588404293
N                60.1872462977       52.8142351440      211.6126044960
C                59.5396015463       51.5845951770      211.9896482615
C                58.8682045078       51.7218263811      213.3716519672
O                57.7765553769       51.1963307905      213.5856970833
C                60.5535631226       50.4716907424      211.8994136171
O                59.9009247601       49.2750077242      211.8498638623
H                61.0714176418       52.7121947008      211.3967448392
H                58.7937633410       51.3769733595      211.3726320746
H                61.1138657168       50.5866093392      211.1070044877
H                61.1366072501       50.5041608949      212.7217698732
H                60.5029602738       48.5960913661      211.8395539661
N                59.5030538504       52.4425784343      214.3068883284
C                58.9504147870       52.7291632351      215.5834246772
C                57.7699178716       53.6927915766      215.4599258137
O                56.7045427162       53.4879775390      216.0566885778
C                59.9790599446       53.2671301574      216.5649589223
O                59.3346488210       53.9372690933      217.6166701964
H                60.3453555823       52.7991133387      214.1821000237
H                58.6035458961       51.8603454073      215.9740248878
H                60.5308285910       52.5181795824      216.9197320553
H                60.5704707862       53.9000890962      216.0825540921
H                59.9578183596       54.2326653178      218.2012481004
N                57.9217569121       54.7468570685      214.7353797060
C                56.8350839294       55.6802533261      214.5199976304
C                55.6356060339       54.9875349337      213.9747731617
O                54.5246541309       55.2841150746      214.3728450694
C                57.2194318410       56.8366785521      213.6519515964
H                58.7033305544       54.9674280032      214.2856681809
H                56.6132786963       56.0615954004      215.4187523670
H                56.4793812679       57.4679620647      213.5529356873
H                58.0125912549       57.3165412150      214.0369197807
H                57.4880111657       56.4970994439      212.7463607292
N                55.8026227917       54.0293300747      213.0814359804
C                54.6846297093       53.3442395001      212.4643020879
C                53.9913989786       52.3896294458      213.4127989547
O                52.7756104317       52.2488180990      213.3925580012
C                55.0012132750       52.5934122034      211.2291041361
S                55.4954667796       53.6454848085      209.9665665527
H                56.6196480262       53.7207349474      212.7959033227
H                54.0550525964       54.0945737231      212.2287292969
H                55.7663528418       51.9627430245      211.4226422660
H                54.2350498350       52.0722494289      210.9166140511
H                56.4757072509       54.3023675634      210.3138420497
N                54.7031489702       51.6637414083      214.2259561034
C                54.0246286781       50.7916754646      215.1789236486
C                53.1079330733       51.6051392697      216.0602189633
O                51.9407925408       51.1802610208      216.3424992005
C                55.0060760895       49.8471263718      215.9077215936
C                55.0534565359       48.4630651884      215.0912835414
C                56.3938159275       47.9885731695      214.4817338550
C                56.2407103570       46.9703681420      213.3559206207
N                57.5106535092       46.4127834071      212.8537286342
H                55.6173721590       51.6351880369      214.2730222036
H                53.4092064807       50.1445814844      214.6884425100
H                55.9064802974       50.2487709273      215.8778291154
H                54.7118683458       49.6892877196      216.8105840913
H                54.7398110444       47.7509365789      215.7102388753
H                54.4158682175       48.5273763629      214.3320033052
H                56.8864811355       48.7752786489      214.1439465288
H                56.9402583461       47.5754016729      215.2252203013
H                55.7041443425       46.2004594197      213.7068962844
H                55.7706619798       47.3915012042      212.6154965498
H                57.3739473503       45.8067960532      212.1814566340
H                58.0513985021       47.0924711768      212.5176911762
H                57.9920868480       45.9946802595      213.5258926034
N                53.5162860873       52.8288280584      216.3676196324
C                52.8196963306       53.6645631159      217.3333348697
C                51.7144222475       54.4866301285      216.7385100524
O                50.6388853438       54.5089979195      217.2905776514
C                53.7589850756       54.5491314262      218.1420725306
O                54.9101161367       53.8302854537      218.6391928530
C                53.0433036282       55.2041864529      219.2382638416
H                54.2534086272       53.2266604048      216.0153826229
H                52.4073662983       53.0168056503      217.9854130486
H                54.1136101668       55.2628841342      217.5224736719
H                55.4052152159       53.5706787705      217.9480856176
H                53.6311285049       55.8553550381      219.7232480686
H                52.2439822564       55.6826362101      218.9329525139
H                52.7565397259       54.5244730341      219.9196176598
N                51.9301978178       55.1928960150      215.6214926676
C                50.9556362441       56.0413137025      214.9599482037
C                50.3291338647       55.4735172330      213.6960863163
O                49.4370191729       56.0689520303      213.0682256275
C                51.5222639169       57.4298560456      214.6633224251
C                52.0807080011       58.0660682321      215.8510731028
C                51.2958380074       58.7285119989      216.7501847471
C                53.3431508865       57.9564549681      216.1640017159
C                51.7765929139       59.2541802856      217.8857570292
C                53.8578764970       58.4829951214      217.3411813013
C                53.0943533411       59.1497341446      218.2151866532
O                53.6447243287       59.7284300875      219.3737165057
H                52.7381292742       55.1915023862      215.1939977019
H                50.2047414838       56.1366560446      215.6326051555
H                52.2309341640       57.3409487758      213.9850576385
H                50.7928038833       58.0073621734      214.3014723478
H                50.3350203334       58.8225769127      216.5518626598
H                53.9572991225       57.4705755048      215.5828738456
H                51.1804095953       59.7372356666      218.5076488257
H                54.8267244807       58.3823867753      217.5374458175
H                54.5086507298       59.5817489002      219.3712849897
N                50.7884830650       54.3457779422      213.2326429055
C                50.3569161934       53.7241973566      211.9867785822
C                49.2390342542       52.7552970187      212.3625674635
O                49.4706403610       51.5326108274      212.6605512449
C                51.5319202152       53.0227966261      211.2818321661
S                51.3086044950       53.2137242414      209.6756995247
H                51.4396828461       53.8412214518      213.6734234066
H                50.0168325739       54.4011032246      211.3829055928
H                52.3828408188       53.4464882099      211.5592281110
H                51.5436816438       52.0650405466      211.5364736495
H                52.0483660788       52.4099814952      209.0591197941
N                48.0352341967       53.2727609046      212.4201476248
C                46.9144495492       52.4092286441      212.6758257932
C                46.7549383123       51.3929114824      211.5490918733
O                46.9774183787       51.6980314035      210.3384942025
H                47.8324496771       54.1461690211      212.3248978078
H                47.0308856174       51.9246893314      213.5251828881
H                46.0708305170       52.9423290170      212.7342613210
N                46.4121225590       50.1568556312      211.9401052196
C                46.1315471434       49.0699597809      211.0204495257
C                47.4081265032       48.6133567731      210.2981817861
O                48.4191098952       48.2352533341      210.9534566638
C                44.9931969356       49.4868881403      210.0490500184
C                43.6041438923       49.6318519342      210.7661493271
C                42.4899297903       50.0549340850      209.8544271446
C                41.1246628485       49.9897399152      210.5464664326
N                40.0021368222       50.4613865401      209.6938808138
H                46.3277910245       49.9178596930      212.8068928446
H                45.8172835770       48.2725465526      211.5220921068
H                45.2359315651       50.3553134262      209.6507620891
H                44.9150775775       48.8004261233      209.3500827491
H                43.3605524747       48.7624210808      211.1773670652
H                43.6878970802       50.3130324386      211.4935114283
H                42.6420070327       50.9873937167      209.5592717186
H                42.4669604743       49.4578199067      209.0690907668
H                40.9389787914       49.0543487657      210.8030961607
H                41.1475219892       50.5585283791      211.3572985288
H                39.2036165451       50.4245815021      210.1493915119
H                40.1386084722       51.3324206713      209.4259866936
H                39.9255883138       49.9400838789      208.9384178033
N                47.3820166024       48.6444466907      208.9597877705
C                48.5351486870       48.3007238075      208.1365111202
C                49.7908051828       49.0666921766      208.5543689259
O                49.7204468248       50.2818747734      208.7691040572
C                48.2349754247       48.5909823575      206.6451227517
O                46.8633157138       48.3383417820      206.4046742598
C                49.1037617052       47.8361733064      205.6609960148
H                46.6433001872       48.8682173644      208.4798006112
H                48.7136873806       47.3301031345      208.2559185439
H                48.4543191077       49.5533000037      206.4911466975
H                46.6438317833       48.6346454529      205.6017633842
H                48.9203204292       48.1112303792      204.7479991240
H                50.0666154019       47.9891051075      205.8656072326
H                48.9316851266       46.8589127490      205.7525788672
N                50.9452829085       48.4022353951      208.6207779217
C                52.2209852154       48.9742842625      209.0628790005
C                53.2562860105       48.3956816114      208.0909396692
O                53.2071917304       47.1792225277      207.8298163173
C                52.4689403455       48.6521641017      210.5363864297
O                53.6377081366       49.2364667468      211.0714469738
H                51.0191898286       47.5239842016      208.3966144830
H                52.2446204238       49.9706540379      209.0033398113
H                51.7036773954       48.9729251796      211.0633638514
H                52.5307200031       47.6583239740      210.6119686240
H                54.0497613264       48.6247348625      211.5689633321
N                54.1469311339       49.2103090076      207.5115446150
C                55.0899694027       48.7249829797      206.5535603880
C                56.2807465248       47.9838256018      207.0892494472
O                56.6552549936       48.1281115709      208.2306904631
C                55.5904334339       49.9647088672      205.8817386145
C                55.3260957938       51.0204738236      206.7360329688
C                54.5149228996       50.5387151669      207.8934671466
H                54.5932390643       48.1061500233      205.9180029280
H                56.5417083138       49.8871707907      205.6414053962
H                55.0777180072       50.0952515483      204.9909398320
H                56.1908176482       51.4026545779      207.0518401585
H                54.8226733417       51.7472558875      206.2657829186
H                55.0680075110       50.5581732532      208.7532730161
H                53.7177647901       51.1228909299      208.0679447196
N                60.3257419851       46.6707041087      207.3742164364
C                61.5998029451       47.3085379314      207.3376398922
C                62.2266711303       47.2475756565      205.9774467165
O                62.8196875902       48.2238520740      205.5149114334
C                62.4870187730       46.7589301089      208.4370402678
C                62.1678063386       47.2345124453      209.9123485219
C                61.8370913680       46.0734542373      210.8492321976
C                60.3974904361       45.5038921834      210.6045973931
N                60.1144964255       44.2927258597      211.3701139966
H                60.2475328433       45.9856087459      207.9577745419
H                61.4998802073       48.2899660292      207.5503330176
H                62.4270429644       45.7621349002      208.4303735295
H                63.4439656330       47.0054110024      208.2556971610
H                62.9295883852       47.7286192748      210.2686684711
H                61.3703496255       47.8267700083      209.8579971630
H                62.4758113489       45.3303391028      210.6772706156
H                61.9053976165       46.3684083608      211.7750444700
H                59.7463818413       46.2088882542      210.8772514498
H                60.2853914645       45.3061628731      209.6507404527
H                59.2581814159       43.9981891588      211.2400894010
H                60.6955452144       43.6134538973      211.1499320447
H                60.2174533171       44.4468453945      212.2892343835
N                60.5495078738       50.0165912156      203.8654754743
C                60.9922651749       51.3258045097      204.3014191624
C                62.3134116477       51.6646207647      203.6852307690
O                62.5173042735       52.7357361086      203.1049150097
C                61.0192296801       51.4470403177      205.8242846671
C                59.5855064569       51.2534792751      206.3549175597
C                61.6111344136       52.7257323211      206.2841599804
C                59.5021945381       50.9804095462      207.7546906359
H                60.4815484094       49.4137647706      204.5567835700
H                60.3105709579       51.9820142957      203.9480289065
H                61.5891132079       50.7206051330      206.1823046364
H                59.0808501187       52.0969287347      206.1885723422
H                59.1510223421       50.5157824026      205.8624902342
H                61.5783487826       52.7917245031      207.2520658012
H                62.5514616595       52.7849374731      205.9628668762
H                61.0987522149       53.4854045847      205.8745908130
H                58.5544220263       50.8775932710      208.0412730368
H                59.9746790304       50.1138664346      207.9582234220
H                59.9258153201       51.6949879139      208.2858498434
N                53.2647891623       53.5335992558      198.0063626286
C                52.3639522917       52.9523363865      198.9921679705
C                52.9537916495       53.0272511950      200.4244095093
O                52.2498353992       53.4074794600      201.3892072591
C                52.0009795597       51.5626913653      198.6294193117
C                50.9159508523       51.4190288538      197.5707839263
C                50.9491542631       50.0275170172      196.8477116873
C                49.5706906333       49.4720581219      196.5821245844
N                49.5306908033       48.4319875786      195.5585327963
H                53.5960218755       52.9360332276      197.4143230313
H                51.5296608655       53.5023957612      199.0168382569
H                52.8197803931       51.0960908036      198.2856662953
H                51.6939478333       51.0706283570      199.4445243736
H                50.0289079994       51.5228111961      197.9922685368
H                51.0435424282       52.1164102863      196.8839138200
H                51.4322564758       50.1063370828      195.9992355459
H                51.4318678343       49.3779356480      197.4419084670
H                49.1947149133       49.0950372675      197.4219219900
H                48.9811853262       50.2242744255      196.2871455137
H                48.6712222538       48.1465576576      195.4060286136
H                49.8660651104       48.7592773494      194.7594937878
H                50.0401165699       47.7141641877      195.8080463028
N                54.2366086355       52.6867818338      200.5571793991
C                55.0415969208       52.8592591621      201.7348561655
C                55.0107186001       54.3146145913      202.2269609002
O                54.7711543051       54.6106992136      203.4420030083
C                56.4949387134       52.4157916480      201.5534284791
O                56.6415035453       51.1487598457      200.9194292027
C                57.1775803560       52.3063067198      202.8448225764
H                54.7328897200       52.3185586088      199.8608527425
H                54.6092184295       52.2778672189      202.4368893509
H                56.9022999351       53.1204753075      200.9794069218
H                57.4686536495       50.9514116969      200.8200019740
H                58.1315401999       52.0405259668      202.7330029415
H                57.1744759685       53.1775712435      203.3415077018
H                56.7443173772       51.6327208206      203.4327679762
N                52.9438946713       56.7124205062      201.7387061809
C                51.6347819690       57.0569513005      202.2258067988
C                51.3652321046       56.5748272597      203.6716130650
O                50.8490999036       57.3587998746      204.5030472140
H                52.9183735453       56.1769427914      200.9957371752
H                51.5277978470       58.0356445412      202.2246248624
H                50.9282187368       56.6566810463      201.6576714642
N                51.6934381714       55.3045604901      203.9746300117
C                51.7409213026       54.7963573230      205.3335659789
C                52.6555627369       55.6583779912      206.2200203147
O                52.2454602099       56.1213274372      207.3505196455
C                52.1856475231       53.3753166932      205.4399480433
C                51.1972179328       52.3777643177      205.0145799698
C                51.9612119000       51.1508581485      204.7009724136
C                50.1801966443       52.0138351185      205.9845041652
H                51.9344108233       54.6864427304      203.3507100538
H                50.8000162468       54.8938167155      205.6647470315
H                52.9913308222       53.2689340671      204.8786033209
H                52.4075147487       53.1865513379      206.3828698335
H                50.6607115767       52.7413540192      204.2380634126
H                51.3599280364       50.4232929748      204.3427337329
H                52.6276395574       51.3444559326      203.9530426666
H                52.4453654085       50.8211325228      205.4704367073
H                49.5548180021       51.3310823000      205.6268496617
H                50.6208340447       51.6389592893      206.7997615372
H                49.6563195487       52.8150857239      206.2567148829
N                53.9352003301       55.8503111744      205.7898928507
C                54.9020130929       56.5194186864      206.6389736759
C                54.4699095838       57.9101410153      206.9649889508
O                54.5068114058       58.2971599904      208.1031914179
C                56.2616926190       56.4860151714      206.0481601997
C                57.1206706360       57.4574698772      206.7694834270
C                56.7707441225       55.1232670395      206.1236949758
H                54.2176619456       55.5947518143      204.9840689325
H                54.9111814974       55.9983498954      207.4913572753
H                56.2765041765       56.7578553956      205.0802386609
H                58.0743725108       57.3776580667      206.4526086504
H                56.8147640099       58.3760779150      206.6093968461
H                57.1033357091       57.2578575143      207.7380358585
H                57.6674245412       55.0551058163      205.6625907654
H                56.8784579511       54.8454093351      207.0567571284
H                56.1515802092       54.4978799288      205.6563864903
N                51.6068155169       59.2333838604      206.9186331274
C                50.4932244808       59.2121725576      207.8507136941
C                50.8760588780       59.2595390176      209.2740657966
O                50.2879374506       60.0320193043      210.0647548630
H                51.5839970143       58.5773009571      206.3095536941
H                49.8816519726       60.0057173903      207.6556561501
H                49.9188969696       58.4000232609      207.6804121017
N                51.8996499179       58.4531641171      209.6109398134
C                52.5325147651       58.4108591036      210.9253461891
C                53.1922553072       59.7257015340      211.2378867273
O                52.8472597779       60.3585685776      212.2094052974
C                53.5297147595       57.3038475042      211.0378263032
H                52.2898554869       57.8795661490      209.0239636864
H                51.7770270154       58.2430773596      211.5780338487
H                53.8805823501       57.2599014667      211.9593319421
H                53.0763166401       56.4229943514      210.8365192979
H                54.2528426138       57.4395921574      210.3981437032
O                57.2057444701       48.7534903823      210.9985402101
H                57.9790201089       49.0927805460      210.7047767009
H                56.6157666416       49.3402967559      210.6694675840
N                52.8288280584       53.5162860873      225.1703747524
C                53.6645631159       52.8196963306      224.2046595151
C                54.4866301285       51.7144222475      224.7994843323
O                54.5089979195       50.6388853438      224.2474167334
C                54.5491314262       53.7589850756      223.3959218542
O                53.8302854537       54.9101161367      222.8988015317
C                55.2041864529       53.0433036282      222.2997305431
H                53.2266604048       54.2534086272      225.5226117619
H                53.0168056503       52.4073662983      223.5525813362
H                55.2628841342       54.1136101668      224.0155207129
H                53.5706787705       55.4052152159      223.5899087672
H                55.8553550381       53.6311285049      221.8147463161
H                55.6826362101       52.2439822564      222.6050418709
H                54.5244730341       52.7565397259      221.6183767250
N                65.3627238982       51.7361761334      221.9511471131
C                65.6552619111       52.6911173931      220.9086077817
C                67.0525076703       53.2825645865      221.0649392608
O                67.7401883524       53.1249174868      222.1354228881
C                64.6904982732       53.8579231006      220.7895388552
C                63.2228919020       53.5408465659      220.7636834151
C                62.7964228387       52.9156682543      219.5038907172
O                63.4402127683       53.1811677225      218.4440181873
N                61.6804822384       52.1327055695      219.5762218819
H                65.5398288031       52.0374271765      222.7977701036
H                65.6041305758       52.1355273988      220.0721864926
H                64.8325336151       54.4361025500      221.6032642281
H                64.8906425695       54.3689229508      219.9893562622
H                62.9951775907       52.9257572944      221.5095030202
H                62.6970120015       54.3827936777      220.8764315129
H                61.2541554972       52.0107837128      220.3290157438
H                61.3930361411       51.7155323012      218.8201650144
N                66.1588354478       59.0659202202      218.0621749363
C                64.7753103305       59.3088674767      218.3898282155
C                64.5959577986       60.8069167364      218.5960539326
O                63.6105638580       61.3778250486      218.1195391602
C                64.2887759745       58.4381710773      219.5238440956
C                62.8499317450       58.2749381805      219.6487454596
C                62.1942057597       57.3356071284      218.6688482749
O                62.7956358268       56.3488687777      218.3339438891
N                60.8975073758       57.6360999535      218.1911908159
H                66.5801601777       58.5236849584      218.6908169381
H                64.1932097964       59.0723916443      217.6113648488
H                64.6875661804       57.5391884410      219.4176073061
H                64.6447260756       58.8404558754      220.3759712352
H                62.6111318354       57.9489113675      220.5721794740
H                62.3970745276       59.1808314454      219.5481043648
H                60.4959324317       58.3795079183      218.5042810070
H                60.5093202150       57.1156888642      217.6171075701
H                65.3697035658       54.5733494073      208.9821382698
H                56.7844465126       47.3533527939      206.4986646854
H                59.6957790534       47.2709141269      207.6042047810
H                62.1659455816       46.4090086423      205.4360431975
H                59.7384086048       50.0861382310      203.4817031610
H                63.0702177992       51.0128849656      203.7350795138
H                52.8272936475       54.1618225430      197.5331468471
H                55.1818881890       55.0628838730      201.5860287244
H                53.3902380764       57.4627837232      201.5202282477
H                54.1506124216       58.5179168855      206.2379003635
H                51.6075589468       60.0131036085      206.4691483537
H                53.9154918138       60.0761553382      210.6428143899
H                52.0674858831       53.7832382459      224.7715080614
H                55.0049699190       51.8734010559      225.6397519088
H                64.4890848127       51.5214870799      221.9253913657
H                67.4578960597       53.8114197747      220.3193036637
H                66.2107800719       58.6572361908      217.2620005052
H                65.2751549087       61.3249039861      219.1160351773
