 391 
 
N                75.6419121732       54.1705265940      209.8133173263
C                74.9717534184       55.0537117265      208.8062448380
C                73.8007722352       55.7938290319      209.5284771411
O                73.2022667287       55.2204935802      210.4281414000
C                74.4020184037       54.1949947548      207.6117699542
O                73.5658822138       53.0988203454      208.0255545316
H                76.1905954377       53.4233019883      209.3589299474
H                76.2554345716       54.7184529969      210.4355553038
H                74.8746828396       53.7626041277      210.3857638194
H                75.6830143249       55.7678462498      208.3871959699
H                73.8261157201       54.8718749789      206.9746332812
H                75.2579289812       53.8243238009      207.0454324928
H                73.8107256896       52.3135560270      207.5243588766
N                73.4583783388       56.9767196066      208.9681349469
C                72.1772387081       57.5656434203      209.3564348575
C                71.0716130668       56.5602421611      208.8896341484
O                70.2775877467       56.0875634160      209.6910829821
C                72.0952197865       59.0138020510      208.8829492843
C                70.8208637826       59.7480725159      209.3221297967
C                70.9833845731       61.3118408499      209.2031192836
O                71.2335653191       61.7913428625      208.0873758839
O                70.8212217991       61.9890348451      210.2501914359
H                74.0823600749       57.5128876427      208.3859781401
H                72.1079494088       57.5704714779      210.4524501489
H                72.9417294476       59.5336640443      209.3429013417
H                72.1944055831       59.0851515879      207.7972190708
H                69.9659680325       59.4641291474      208.7058083755
H                70.5991974772       59.5161761414      210.3644993061
N                71.1624674893       56.1233359817      207.6165161753
C                70.2877827367       55.1565057520      206.9230518783
C                69.6856295949       53.9807675464      207.7541384766
O                68.4736772138       53.7640350684      207.7897131776
C                71.0841808322       54.5641082403      205.7136565146
C                70.1586992836       53.8807694264      204.7093940981
C                69.7198605249       52.5668986715      204.8976668963
C                69.6987190196       54.5968787509      203.5982964905
C                68.8255074577       51.9985584813      204.0043415118
C                68.7913051185       54.0344490196      202.7200135359
C                68.3485770520       52.7372186032      202.9280040179
H                71.8127968097       56.6011055275      207.0044709136
H                69.4104561138       55.6912167890      206.5349534184
H                71.5969234311       55.3823793281      205.2081248811
H                71.8079403668       53.8408452344      206.0853578752
H                70.0614383013       51.9771823499      205.7344839126
H                70.0492398186       55.6051190273      203.4323788335
H                68.5439980585       50.9645470633      204.1332767707
H                68.4341428202       54.6046201052      201.8755160930
H                67.6318122839       52.2981650050      202.2504218352
N                70.5616885358       53.1545750630      208.3352606008
C                70.0337379452       51.9823207790      208.9695837087
C                69.1616257087       52.3700566474      210.1510074227
O                68.2403126342       51.6698365415      210.5591030047
C                71.1881870396       51.0463636582      209.2885356656
C                71.3851772963       50.1763198657      208.0685140375
C                70.0065610513       49.4333351649      207.7983954877
O                69.3208961963       49.1270146795      208.8048335400
O                69.7477982445       49.2458555678      206.5741710779
H                71.5688871991       53.2837922156      208.2825759152
H                69.3430649246       51.4820116167      208.2786436580
H                72.0705371672       51.6234405081      209.5639078033
H                70.9008538345       50.3944696626      210.1152520296
H                71.6171666435       50.7414988983      207.1676562077
H                72.1454826360       49.4098147732      208.2211732420
N                69.5514117893       53.5231123772      210.7488062592
C                68.9164332033       54.0536497883      211.9502686388
C                67.5866830193       54.7674440383      211.7107806919
O                66.6752743000       54.5860634937      212.5132966516
C                69.8101440204       55.0355891804      212.7021690473
H                70.2252715265       54.1334629238      210.3097561817
H                68.6809783999       53.1999263759      212.5969363757
H                69.2623950653       55.3891100216      213.5668373351
H                70.7325414157       54.5599160381      213.0228987110
H                70.0557623862       55.8903827718      212.0784277212
N                67.5442941423       55.5711533610      210.6398444515
C                66.3348099628       56.2223988539      210.1773963165
C                65.2914558621       55.1147220908      209.9349218308
O                64.1412779448       55.2154004515      210.3593538824
C                66.6163203544       57.1507109506      209.0027382430
C                65.3085395286       57.5415426858      208.3647853198
C                67.3254977585       58.4040515292      209.4885078667
H                68.3982636191       55.7020309335      210.1097575685
H                65.9149943557       56.8235486136      210.9981233745
H                67.2388372587       56.6100150792      208.2783574912
H                65.4661091924       58.2096674822      207.5208062931
H                64.7637921058       56.6657531401      208.0271826141
H                64.6870427947       58.0595267512      209.0924619016
H                67.5142076652       59.0872444931      208.6650073119
H                66.7028171150       58.9194803697      210.2111374719
H                68.2723269846       58.1624837348      209.9687114992
N                65.7467848517       53.9852357128      209.3642636614
C                64.8222316873       52.8541880324      209.2283799261
C                64.2349365745       52.4191909065      210.5802045892
O                63.0434959861       52.1462740167      210.6663833931
C                65.3701482444       51.6236444145      208.4923318609
C                65.8613082636       52.0266047318      207.1104028917
C                64.2592070996       50.5819786663      208.4545617414
C                66.5747528046       50.9047110167      206.3797927007
H                66.6674983688       53.9134365642      208.9538446228
H                63.9595599145       53.2247016180      208.6517343438
H                66.2285089767       51.2311609773      209.0516429370
H                65.0060799576       52.3495326666      206.5092712884
H                66.5502645772       52.8651099125      207.1838311751
H                64.5848402441       49.7315190982      207.8625831703
H                64.0235237147       50.2385789851      209.4550727316
H                63.3670071345       51.0046365041      208.0025443418
H                66.9338776569       51.2766764055      205.4259993996
H                67.4330119775       50.5387376198      206.9385006995
H                65.9100620681       50.0658562795      206.1902383040
N                65.1156338659       52.2779296429      211.5919215405
C                64.6696650980       51.8776977672      212.9387469474
C                63.5929424947       52.9098090607      213.4419846042
O                62.5007930510       52.5668527701      213.8879731850
C                65.8544459414       51.6331751667      213.8947458875
C                65.7601828306       50.3243073350      214.7659094957
C                66.9075763242       50.1533840301      215.8618432257
C                67.9898057986       49.0432282337      215.5968200650
N                68.7453496841       49.0874274287      214.2227082039
H                66.0895387062       52.4825073284      211.4274451434
H                64.1127466275       50.9401656582      212.8049382035
H                66.7653816722       51.6276319300      213.2961967944
H                65.9248774057       52.4900574087      214.5743484751
H                64.7834176878       50.2967156282      215.2385736107
H                65.8257525246       49.4817031555      214.0752654052
H                67.4254659477       51.1104656382      215.9412910626
H                66.4705811389       49.9197245944      216.8300623064
H                68.7521585690       49.1248507812      216.3678499717
H                67.5271914342       48.0588677758      215.6371514596
H                69.4150488077       48.3065288594      214.1827735674
H                68.0946545583       49.0173597201      213.4287010691
H                69.2712250099       49.9668695657      214.1389315790
N                63.9089580717       54.2034085645      213.3170566832
C                63.0571903507       55.1582160021      213.9644787825
C                61.6703941631       55.1671185686      213.3326820755
O                60.6467350444       55.2450056579      214.0157094021
C                63.6068445577       56.5614601850      213.8623416394
C                62.5984175358       57.5142732466      214.4882772590
C                64.9552364467       56.6740365505      214.5508685895
H                64.8165927876       54.4908248609      212.9715574334
H                62.9333106373       54.8800634394      215.0232370521
H                63.7390050792       56.8157239093      212.8041812885
H                63.0189094598       58.5122137201      214.5539961635
H                61.6786874980       57.5780681688      213.9152681506
H                62.3548580960       57.1774802084      215.4936854256
H                65.3212202138       57.6931385925      214.4567504072
H                64.8662351493       56.4372137356      215.6101102379
H                65.6928401103       56.0158888213      214.0999452347
N                61.6643911311       55.1337066830      211.9841328466
C                60.4093002537       55.2594462608      211.2403417475
C                59.5302315117       54.0323655680      211.5469001568
O                58.3130872800       54.0514719098      211.7474038926
C                60.7706804545       55.4485417105      209.7825375903
C                61.2389440829       56.8854300206      209.6512677061
C                59.6475747508       55.0813801646      208.8097840684
C                61.7188394842       57.0304402921      208.2115015934
H                62.5391705143       55.1488035200      211.4718478793
H                59.8579650508       56.1328302393      211.6151231074
H                61.6242319243       54.7927847113      209.5770222263
H                60.4327124827       57.5892872765      209.8578465075
H                62.0649299572       57.0729898928      210.3357124429
H                60.0176662168       55.0498169822      207.7930787461
H                59.2382179984       54.1068827478      209.0584233413
H                58.8414734630       55.8080463083      208.8685498812
H                62.2772200885       57.9572465808      208.0844546822
H                62.3788418593       56.2087049537      207.9505341138
H                60.8809897006       57.0545170371      207.5239778124
N                63.2284159242       50.6979482999      203.8083403642
C                64.5469020357       50.8184575963      203.2197571202
C                64.4809238556       51.0194795719      201.7124494112
O                65.1982992542       51.8486623393      201.1518562697
H                63.0210995317       49.8709909096      204.3605779958
H                65.0853384955       51.6700844605      203.6497091814
H                65.0988773252       49.9018531551      203.4282904737
N                63.2959549500       54.5083255487      201.2747681142
C                64.4314936192       55.3224144681      201.6401165097
C                65.5110527581       55.2969029553      200.5697013797
O                66.1240845799       56.3386594093      200.3384392813
C                65.0350606566       54.9422229823      202.9743987875
C                64.4623439082       55.7735519574      204.0987380687
C                65.1133742502       55.3044387498      205.3938831284
C                64.7213610754       57.2522865640      203.8690870916
H                62.9729099547       53.7939981525      201.9240597182
H                64.1139619584       56.3729712938      201.6630623091
H                64.8510748203       53.8825694303      203.1502305793
H                66.1169514226       55.1001193659      202.9454793641
H                63.3820537843       55.6060840800      204.1645816225
H                64.6175284496       55.7447946139      206.2530148962
H                65.0535005224       54.2244989940      205.4761453369
H                66.1602293114       55.5975573557      205.4226590967
H                64.6224640057       57.8129491829      204.7994175311
H                65.7214226636       57.4382578180      203.4829994815
H                64.0130660964       57.6900201321      203.1708152306
N                65.7359173256       54.1269211555      199.9625804269
C                66.8866866138       53.9533312156      199.1050615868
C                66.6619329601       54.6224823297      197.7177608948
O                67.4889322932       55.4381421509      197.2839212286
C                67.2854420493       52.4747769950      199.0558768591
O                68.5929749001       52.3742169123      198.5229044524
H                65.2694705018       53.2918219154      200.3008318737
H                67.7308636695       54.5124744067      199.5382743559
H                67.2378429422       52.0876697206      200.0745988700
H                66.5690190510       51.9260924420      198.4294995692
H                69.0094903059       51.5701761652      198.8584176044
N                67.0676289656       58.1521410483      198.0022419515
C                68.4412890072       58.6326813459      198.0400086553
C                68.8480261350       58.8082797602      196.5902884508
O                69.3470051335       59.8463780169      196.1808968992
C                69.4334635014       57.6365500000      198.6339364718
C                69.4549610210       57.4935453773      200.1710123970
C                69.9759332805       58.6717443008      200.9633716237
O                69.3032168391       59.2493309828      201.7998788081
N                71.2807750694       58.9720815800      200.7938614224
H                66.7932348717       57.4133296495      198.6469999001
H                68.4971316233       59.6108398638      198.5420805763
H                69.1811447230       56.6537425421      198.2298544862
H                70.4232261715       57.9196803124      198.2714258639
H                68.4391586577       57.2979317384      200.5214791930
H                70.0911302282       56.6402310281      200.4134075019
H                71.7105522312       58.6981737655      199.9221367058
H                71.5623940582       59.8913302952      201.1146377973
N                70.3177272450       63.0052550610      202.8389653096
C                70.6815995314       62.4587963899      204.1270649744
C                69.3533612217       61.8414890078      204.5818725109
O                68.2759412042       62.4392691088      204.4254395643
C                71.2828299408       63.6185176182      205.0281275204
O                71.5213701993       64.8909290640      204.4027351618
H                69.6161714385       63.7315152635      202.9299871450
H                71.4440226408       61.6953517180      203.9576972045
H                70.6053112455       63.7675169161      205.8832567341
H                72.2471849910       63.2987138031      205.4269104002
H                70.6738773401       65.3427710290      204.2741208880
N                69.2989299991       60.5949053862      204.9931604834
C                67.9826509185       60.0623609484      205.2481960012
C                67.2115015638       60.8054817180      206.3359651773
O                65.9915141576       60.9115005087      206.1896259141
C                68.1622758464       58.5760226448      205.5533736836
C                69.6519444073       58.3108591503      205.3580495322
C                70.3562906227       59.6767891190      205.2670175432
H                67.3771327791       60.2238578971      204.3477478471
H                67.8527168580       58.3815048861      206.5789216410
H                67.5471734805       57.9801882803      204.8854851796
H                70.0590320059       57.7471178058      206.1913863563
H                69.8118308865       57.7722324342      204.4257812052
H                70.8505763965       59.9720095871      206.2013887482
H                71.0888897244       59.6969611425      204.4580690119
N                67.8285084956       61.2643710953      207.5135691382
C                67.1070986609       62.2324193049      208.3321479927
C                66.2671572211       63.3278085040      207.6498617651
O                65.2825497820       63.7912235259      208.2230305399
C                68.0713568127       63.1070606861      209.1710859303
O                68.7227950148       64.1465645456      208.4544816375
H                68.7988146450       61.5406730550      207.3869418361
H                66.4185045449       61.6959764929      208.9980075342
H                67.4876145417       63.5257376039      210.0002695780
H                68.8891629246       62.4921162452      209.5611717111
H                68.2281147933       64.9819987380      208.4555702648
N                62.4921400307       63.5987590042      207.6436273224
C                61.6617293057       63.9508811428      208.7795892540
C                61.1146058822       65.3633704487      208.6686642818
O                60.0542362043       65.6576122610      209.1820031497
C                62.4694696309       63.9521676040      210.0856182455
C                63.0369944786       62.6164792421      210.5022073302
C                62.3648520295       61.3981457741      210.3950038774
C                64.3113686130       62.6021744255      211.0351085998
C                62.9588054104       60.2070566016      210.7900201090
C                64.9262570814       61.4312988139      211.4332182704
C                64.2624228318       60.2213977942      211.3040717573
O                64.8717835727       59.0750224334      211.6587066236
H                63.4873868387       63.7457701068      207.7350388024
H                60.8168290882       63.2561420550      208.8264786091
H                63.2845090260       64.6760265257      209.9739240466
H                61.8055989656       64.3296073963      210.8736566307
H                61.3646290240       61.3781255756      209.9912655263
H                64.8471370121       63.5418114096      211.1254315395
H                62.4406588013       59.2704858358      210.6697286436
H                65.9266175615       61.4644691546      211.8370471326
H                65.6352195072       59.2488672680      212.2517648188
O                66.9056016945       59.3652057089      213.5548409909
H                67.8515078944       59.1512644170      213.5434215457
H                66.6950277308       59.7925235803      214.3963103848
N                72.8670286050       68.5573286467      208.0259987315
C                73.0793783853       67.1102819437      207.9776665409
C                74.2294673252       66.9099493436      207.0151033032
O                74.1854114452       67.5626719625      205.9663766320
C                71.8067410138       66.4027082941      207.4637602689
O                70.7094483787       66.7355489935      208.3278492778
H                72.0170769824       68.8767008703      207.5909479029
H                73.2887258699       66.7599706462      208.9981969058
H                71.5908490624       66.7306814410      206.4352872958
H                71.9645562617       65.3148114647      207.4582055686
H                69.8538665210       66.4536536120      207.9736029443
N                67.3580164075       53.9910732179      219.9482125228
C                68.5895366101       54.7595013372      220.0123529290
C                68.1833333313       56.1758056617      220.4470925136
O                67.6291827155       56.9480482763      219.6606947794
C                69.4270331753       54.9309890541      218.7317822862
C                70.7610931379       55.5965764851      219.1234329563
C                69.5745254602       53.6362978018      217.9295171997
H                66.7089109469       54.1801068817      219.2013688518
H                69.1912525147       54.2781035986      220.7911999362
H                68.8781557461       55.6382435194      218.0982297110
H                71.3541371675       55.7994631995      218.2339836032
H                70.5828141081       56.5375391421      219.6374706549
H                71.3351825267       54.9456527966      219.7773144189
H                70.1467801801       53.8365885952      217.0278452042
H                70.0926712339       52.8848029394      218.5197919476
H                68.5932292601       53.2630705717      217.6564310532
N                68.8921498724       59.3173487525      217.9503512848
C                68.1708246126       59.1545037552      216.7020878737
C                66.7139461262       59.5116604363      216.9849304345
O                66.0670200980       60.2094286164      216.1992885595
C                68.2231633336       57.7511720848      216.0842661245
C                69.6118450411       57.3343312579      215.5952781072
C                70.3454109406       58.4321579703      214.7766804936
O                69.8488058434       58.7806119046      213.6483245442
O                71.3629114628       58.8952579510      215.3111877246
H                69.3827341075       58.5242192177      218.3342583852
H                68.5660319399       59.8843517409      215.9805907920
H                67.8616528522       57.0343565230      216.8248360007
H                67.5327036092       57.7408882094      215.2415117893
H                70.2721958643       57.1281468804      216.4378676287
H                69.5216338408       56.4363885399      214.9933492889
N                66.5179924868       63.3006278251      217.1637055586
C                66.6863956890       63.8833511260      215.8199225198
C                65.3395784222       63.8572897697      215.0460074422
O                64.9116869696       64.7585000514      214.3272950000
C                67.7607981082       63.0787520294      215.0848578192
C                68.2372503462       63.6021773716      213.7430347287
C                68.9510245068       62.5021612551      212.9390122477
C                70.2894002149       62.1298185590      213.5441267437
N                70.8770691112       60.9988187730      212.8175659106
H                67.1027932587       62.5065443186      217.3970225482
H                66.9889763579       64.9338366771      215.9085573418
H                68.6178942118       63.0039468948      215.7590804641
H                67.3649032487       62.0677235319      214.9501554619
H                67.3806305211       63.9585623932      213.1662651350
H                68.9190187069       64.4423644003      213.8795320161
H                68.3199625386       61.6132955774      212.8868125528
H                69.1300602681       62.8503131365      211.9210519912
H                70.9721004946       62.9825365383      213.5045320955
H                70.1857448406       61.8289971108      214.5899462996
H                71.8670980263       60.8984136822      213.0960744122
H                70.4127463246       60.0458000654      213.0818730682
H                70.8666660717       61.2308406561      211.7887123035
N                64.6453253539       62.7460165176      215.2841718832
C                63.3708337410       62.6060217752      214.6467507341
C                62.4727120823       63.6815052734      215.2020772489
O                61.7619453386       64.3525708329      214.4753787974
C                62.8564098403       61.1906188220      214.8341893446
C                61.3897610218       61.1396262592      214.6217421740
C                60.8437115909       60.6238111291      213.4781099522
C                60.5054254986       61.5557457654      215.5893312437
C                59.4730572050       60.4561317626      213.3203122218
C                59.1412269660       61.4073187469      215.4164453632
C                58.5850582544       60.8344469624      214.2877168798
H                65.0592895787       61.9557695093      215.7650318589
H                63.4724763629       62.8249726572      213.5713157315
H                63.3895946170       60.5477307419      214.1335985328
H                63.0938414570       60.8800125487      215.8565520073
H                61.4985467093       60.3072378828      212.6804246227
H                60.8670849394       61.9396877383      216.5313806140
H                59.1290492010       60.0120944704      212.3975300962
H                58.4935894178       61.7361627434      216.2180791605
H                57.5211312786       60.6968963265      214.1945538703
N                75.2883957985       63.2787624920      212.3740330817
C                75.2026252191       61.9911002858      211.7062525031
C                74.2300584642       60.9063767048      212.4399330438
O                73.7802952526       61.1503295297      213.5878701133
O                73.9828163235       59.8985043984      211.7468098267
H                74.4889003964       63.8812301071      212.2233494980
H                74.8272339659       62.1295410066      210.6948549511
H                76.1885983226       61.5285734610      211.6816322782
H                59.9418240817       53.1223686522      211.5968718433
H                63.0836813055       51.3898947153      204.3653520771
H                63.8483795099       50.4740953274      201.1625006166
H                62.5783347730       55.0353401171      201.1433263925
H                65.8516348263       54.3943242036      197.1779824181
H                66.5062974501       58.8325811485      198.1808706159
H                68.7103994517       58.0624605203      195.9385119880
H                71.0459498464       63.3596217535      202.4463890876
H                66.5225412224       63.6611968465      206.7423204575
H                62.3951510524       62.7229194427      207.4606021862
H                61.6286011735       66.0608910889      208.1693910128
H                72.8350043619       68.8277875548      208.8838019880
H                74.9689873494       66.2770915660      207.2444527464
H                67.5535776691       53.1165633758      219.8646162965
H                68.3673502172       56.4844600715      221.3802968005
H                69.5247326164       59.9498538951      217.8514760274
H                66.2700902063       59.1791082706      217.8170367856
H                66.6981165838       63.9248081804      217.7865652489
H                62.4518272926       63.8565085295      216.1864235731
H                75.3582341708       63.1524276462      213.2623810475
