 238 
 
N                21.5143923223       12.7562644971        9.2728837786
C                20.9466523317       12.5037398696       10.5946945357
C                21.8346506178       12.9363902376       11.7532813267
O                21.3163193775       13.4765856006       12.7358948033
C                20.6068266823       10.9991060315       10.6963402530
C                19.9875750631       10.6772374378       12.0132068634
C                19.4024921508        9.2506825200       12.0078395819
O                18.9947407930        8.7510615206       10.9638022427
N                19.3373063978        8.6334693440       13.1839003380
H                21.4020663654       12.0326074570        8.5630044163
H                20.0218976708       13.0892621768       10.7110602910
H                19.9191985132       10.7524938063        9.8874220015
H                21.5273040346       10.4311472991       10.5614472245
H                20.7122145667       10.7527206005       12.8234931090
H                19.1669776436       11.3661163239       12.2307488908
H                19.7804271342        9.0251342706       14.0098423448
H                19.0921334371        7.6564898287       13.1929056289
N                23.1322476533       12.6487272144       11.6614780884
C                24.0310807616       13.0555016853       12.7160850277
C                23.9373430407       14.5462991744       13.0197499532
O                24.0549487394       14.9566618106       14.1847013632
C                25.5061719388       12.7375708370       12.3150953405
O                25.9304152300       13.3898719233       11.1505126567
H                23.4822322701       12.0717694982       10.8946222068
H                23.8066123158       12.5048277431       13.6389370153
H                26.1417357461       13.0557914277       13.1485498478
H                25.5869487705       11.6527124868       12.2122562551
H                26.1848514435       12.7180354289       10.4707795037
N                21.3723512967       16.6431162471       12.5217041584
C                20.1374728932       16.9162241427       13.2167308483
C                20.1843143947       16.4447704487       14.6793757020
O                19.6344965907       17.1302228306       15.5468687923
C                18.9594157740       16.2480777552       12.4732798410
C                18.7073834881       16.9405622618       11.1286514839
C                17.8374292645       16.0304577255       10.2534943567
C                18.1213683045       18.3272841074       11.4031531886
H                21.3990804987       15.9211881234       11.8127805508
H                19.9966358542       18.0002556455       13.2643649138
H                19.2186705816       15.1973884792       12.3263139978
H                18.0679730176       16.3015905492       13.0983024317
H                19.6633225317       17.0646725106       10.6097175868
H                17.5409902825       16.5407136251        9.3401995050
H                18.4077535548       15.1532024742        9.9686477979
H                16.9397061733       15.7195567930       10.7830532733
H                17.7458777710       18.7550239914       10.4756156673
H                17.3080754260       18.2568162145       12.1195940583
H                18.8793085390       18.9982931222       11.7927464200
N                20.7793418897       15.2638569720       14.9226030612
C                20.9160058573       14.8004664029       16.3220582508
C                21.7346344640       15.7524510166       17.1512417283
O                21.4716496072       15.9750640898       18.3410254281
C                21.4840762315       13.3462915884       16.3762886381
C                20.4480384930       12.4460789331       15.7280115497
C                20.9791536138       11.0207619912       15.6114184583
O                22.2101777714       10.8925792927       15.4650513784
O                20.1481866446       10.0886809225       15.5713016736
H                21.1677506414       14.7182484357       14.1636548186
H                19.9114283913       14.7894416194       16.7663702842
H                22.4274043533       13.3026074457       15.8357093753
H                21.6568161122       13.0603761322       17.4123653146
H                19.5179461064       12.4481332666       16.2989031852
H                20.2361398552       12.7811432882       14.7111549683
N                22.7719763053       16.3232845008       16.5202834819
C                23.5960305407       17.2714807736       17.2579746914
C                22.8283792887       18.5981151237       17.5117501740
O                22.8913504247       19.1624419027       18.6031744274
C                24.9233961952       17.4791061935       16.5197844631
C                25.9019939621       18.3300844653       17.2855990563
C                27.2562392770       18.5486698850       16.5969682281
O                27.9671355159       19.5064270611       16.8719763602
N                27.6533051220       17.5949689998       15.7287162365
H                23.0652784935       16.0271803911       15.5983108373
H                23.7983909510       16.8483461829       18.2510095974
H                25.3293331575       16.4779551882       16.3655843209
H                24.7070010433       17.9262604885       15.5452788558
H                25.4932249815       19.3181793406       17.4990404237
H                26.1282139436       17.8649633090       18.2488855329
H                27.0278780201       16.8942544651       15.3763973090
H                28.5192344454       17.7399756439       15.2348220270
N                22.1082426349       19.0556884676       16.5120896015
C                21.2693590032       20.3006741673       16.6794096103
C                20.3688317374       20.2051962034       17.9004673476
O                20.2019718060       21.1506489358       18.6684405607
C                20.4363947920       20.4967126571       15.4159673872
C                19.6080793368       21.7321027859       15.4883792080
N                20.1036924801       22.9668310421       15.1024686218
C                18.3101493051       21.8785551724       15.9193519483
C                19.1348676324       23.8260737912       15.3295145131
N                18.0364135852       23.2271342455       15.7999094356
H                22.1204929375       18.6322810090       15.5888868326
H                21.9412886391       21.1512048160       16.8334614551
H                21.1174047859       20.5606818845       14.5652525112
H                19.7841608131       19.6284220931       15.2968565400
H                17.6144688718       21.1802367623       16.3213540604
H                19.2085142878       24.8783557696       15.1397250638
H                17.2002384122       23.6826060615       16.1366045289
N                19.7357484017       19.0386788020       18.0432012677
C                18.7755857046       18.8051047888       19.1299172800
C                19.4151280862       17.9632334464       20.2526466300
O                18.7231845692       17.3304535551       21.0555224692
C                17.5088438259       18.1023315978       18.6038919255
C                16.6708421808       18.9495383781       17.6950913433
C                16.0434269394       20.0845977091       18.1957437329
C                16.5858646941       18.6873312314       16.3313819816
C                15.2935643069       20.9296187199       17.3997486949
C                15.7024250198       19.4343934846       15.5593693382
C                15.0554894957       20.5531387604       16.0788146933
O                14.2582688708       21.3629994117       15.3462332576
H                19.8368721781       18.3035305778       17.3544608130
H                18.5295820264       19.7841027077       19.5556632755
H                17.8206474017       17.1944287462       18.0814641317
H                16.9297891071       17.8075140251       19.4817231774
H                16.1781600821       20.3351233090       19.2376391497
H                17.1299068959       17.8620317310       15.8999760858
H                14.8637717135       21.8278472126       17.8072535469
H                15.5941499740       19.1852258334       14.5144622914
H                14.0860994480       20.9850685565       14.4696702152
N                20.7339298634       18.1020121114       20.3999725481
C                21.4481090303       17.3341173413       21.3971709708
C                20.8267058696       17.5484305128       22.8017313426
O                20.7957666386       16.6053585271       23.5877127952
C                22.9011169922       17.7365375817       21.4866160067
H                21.3057101809       18.5974610897       19.7259498660
H                21.3474756702       16.2627073737       21.1823740624
H                23.4257101003       17.0509030513       22.1456672596
H                23.3601058545       17.7045415541       20.5026204155
H                22.9881828517       18.7446669529       21.8847617746
N                12.3314117260       12.4327960159       20.8354237616
C                13.5227036586       12.8024780669       20.0884732760
C                13.6201081316       12.0535633178       18.7684972231
O                13.9088285290       12.6680499932       17.7392447503
C                14.7704106792       12.5235913443       20.9194507295
C                16.0655584473       12.8111189094       20.2062464012
C                16.4828122600       14.1261323458       20.0033802686
C                16.9275259664       11.7919885889       19.8501715448
C                17.7809197355       14.3707354033       19.6011811838
C                18.1616252650       12.0424386133       19.2884390533
C                18.6163704409       13.3537185874       19.2078009476
H                12.4789362684       12.0271622999       21.7552130091
H                13.4599375385       13.8684210281       19.8308270265
H                14.7369511596       13.1385011584       21.8230873897
H                14.7559710301       11.4753873374       21.2197372051
H                15.8379410129       14.9476946553       20.2784119786
H                16.6202179577       10.7684665708       20.0039508675
H                18.1328446380       15.3918431282       19.5613324315
H                18.8060674184       11.2316070855       18.9873317654
H                19.6188628214       13.5596528323       18.8657226964
N                13.4345564399       10.7117183362       18.7984109314
C                13.5703795786        9.9588887820       17.5604661060
C                12.6289273919       10.4678171306       16.5042274774
O                12.9585017906       10.5234269204       15.3028725966
C                13.2903404621        8.4730273425       17.8017005561
C                14.5072348037        7.7910163632       18.4173110844
C                15.5383516517        7.3910804071       17.3527995982
C                16.9686484877        7.4550431238       17.8957317557
N                17.9330982117        7.2926940869       16.7748661305
H                13.2740486489       10.2347128889       19.6807631481
H                14.5904697228       10.0951660413       17.1754610249
H                12.4344620362        8.3990991493       18.4713458710
H                13.0296510076        7.9899017797       16.8603021442
H                14.9605618163        8.4732647492       19.1346267174
H                14.1853051526        6.9061756182       18.9651760627
H                15.3197893739        6.3843137779       16.9980070199
H                15.4655567878        8.0726522787       16.5055938018
H                17.1444698742        8.4418372869       18.3236962645
H                17.1357493828        6.6860082737       18.6482201327
H                18.8977082751        7.2083172758       17.1025180842
H                17.6969351248        6.4855863243       16.1910533187
H                17.8368717836        8.2219696664       16.2466201384
N                13.6343304231       13.8789791643       15.0958635294
C                14.7357261208       13.7677429876       14.1654909383
C                14.2083929881       13.2246142047       12.8353191404
O                14.5722387277       13.6507402318       11.7477334715
C                15.8451293851       12.8880737602       14.7415948062
C                16.8651861067       12.4599543810       13.6626131664
C                16.5243341367       13.6312203184       15.8857111527
H                13.6701624350       13.3843385425       15.9815775636
H                15.1356373486       14.7674329085       13.9471727581
H                15.3781567210       11.9863177979       15.1482325681
H                17.6832639891       11.9194431435       14.1291260647
H                16.4027597648       11.8251271560       12.9132560576
H                17.2761061946       13.3344791401       13.1624084204
H                17.2770236505       12.9998314366       16.3504945117
H                17.0165813287       14.5339739361       15.5286499440
H                15.8066772724       13.9012082425       16.6548182990
O                23.0360366833        9.0796905832       13.8442823383
H                23.9778823641        9.0094759246       14.0131055799
H                22.7155599768        9.7765597881       14.4621752984
O                22.5104542281       14.0703928277       19.9923477690
H                22.7066735198       14.1697002933       20.9428745227
H                22.0343225828       14.8500219979       19.6733996808
O                25.0386490695       10.6900179660       16.0362683062
H                25.2749742797       11.6090019411       16.2242760757
H                24.0734728454       10.6863810258       15.9906095044
O                25.5012420955       13.4978210761       16.2297931601
H                26.4429259392       13.5992469559       16.0661663633
H                25.0227149163       14.0024189833       15.5533984192
O                17.5608448475        9.8113311004       16.2045111984
H                18.4661263560       10.0921241043       15.9558831417
H                16.9744507467        9.9710074276       15.4525815272
O                21.6048985247        7.2703825272       15.1575206904
H                22.0705310808        7.8528510939       14.5102419202
H                21.5921971682        7.8049102134       15.9570592124
O                25.0996527648       14.4213740330       18.8217984585
H                25.1949069080       13.9366708104       17.9886094840
H                24.2375598155       14.1609000756       19.1740777577
O                21.9022843978       11.4161256138       19.8499426650
H                22.0946183828       12.3688321960       19.9313406724
H                21.5124403100       11.1484272018       20.6844081866
O                29.5468629606       10.5016886707       15.4455594219
H                28.8138469654        9.8619045559       15.3494340429
H                30.3568832234       10.0132243995       15.6460631530
O                26.7238900717        8.6196881279       12.6316259639
H                25.7950491807        8.7435874965       12.3753873779
H                26.8462712944        7.6648364691       12.6894674659
O                23.6265907983        5.4162396623       15.1349370413
H                22.9384093942        6.0825180572       14.9869320513
H                23.3747218569        4.6260320810       14.6519142977
O                26.7154162401        6.2441694959       15.5680615447
H                26.6616342772        6.0630809985       14.6175560851
H                27.2918578995        5.5834781516       15.9600726976
O                20.9412399534        4.9417357094       16.3497787799
H                20.8129532771        5.7749578730       15.8837861063
H                21.8723142371        4.7348135597       16.2021013108
O                24.1780599809        8.8142121048       11.6920194527
H                24.0674021973        9.5237870465       11.0418303170
H                24.0224274776        7.9892671835       11.2253630429
O                27.2633508628        8.9685048298       15.1848998829
H                26.5031817040        9.4958327375       15.4557588182
H                27.0340956483        8.0424064313       15.3570411063
H                21.1378490152       13.4936450534        8.9200593845
H                23.7803696424       15.1986914668       12.2783029564
H                21.6448956887       17.3847300793       12.0907418882
H                20.4595217124       18.4435033267       23.0547539748
H                11.8217721819       13.1625540480       20.9685430677
H                11.7110077772       10.7730798729       16.7576801139
H                13.5254778454       14.7409035918       15.3308899055
H                13.5338356836       12.4864200176       12.8288550143
