 242 
 
N                27.6910231219       24.7274531685       85.1410916889
C                27.2009168735       23.3659548506       85.1706605936
C                25.9610003512       23.2060857542       84.2907724272
O                25.7834044467       22.2129830468       83.5963402737
C                26.8644118248       22.8919209733       86.5931028941
C                26.3009445120       21.4894545890       86.6352584097
C                27.0226608183       20.4091269123       86.1373261226
C                25.0617669772       21.2364493833       87.2130367214
C                26.5214647340       19.1196562932       86.2060567297
C                24.5704388925       19.9442439184       87.3147146348
C                25.2963472456       18.8803318137       86.8085145186
H                27.1232556131       25.4177662906       85.6167221978
H                27.9952885155       22.7400183104       84.7587490704
H                27.7817231619       22.9307569418       87.1872067485
H                26.1507990788       23.5873019831       87.0406456102
H                28.0045545174       20.5714816102       85.7214160271
H                24.4800578826       22.0559015633       87.6151415434
H                27.0866366805       18.2929248955       85.8000492232
H                23.6147924846       19.7716144949       87.7909323501
H                24.9160486886       17.8731742158       86.8937673159
N                25.1069009321       24.2237184531       84.3434826184
C                23.8522394325       24.1271391434       83.6364044823
C                24.0484924256       24.4173384049       82.1461182760
O                24.8410544902       25.2678474720       81.7532631021
C                22.8752955027       25.1812814582       84.1538592985
C                22.3472249206       24.9014926673       85.5653424290
C                22.0568712638       26.2125169972       86.2856925406
C                21.0812595703       24.0627339706       85.4825764921
H                25.2386167124       24.9854537566       85.0016539423
H                23.4758458146       23.1122238771       83.7902595653
H                23.4028133295       26.1347921415       84.1408414545
H                22.0350646718       25.2645989179       83.4618412759
H                23.1065175780       24.3584024244       86.1410017063
H                21.6188124895       26.0264293013       87.2625046059
H                22.9676668888       26.7852812259       86.4440883576
H                21.3652874516       26.8267833587       85.7147495535
H                20.7121290390       23.8131877472       86.4754818313
H                20.3010027785       24.6185024607       84.9657125809
H                21.2654375548       23.1353301111       84.9482272692
N                23.2435153110       23.7426089610       81.3253130361
C                23.1157038567       24.1217843670       79.9097247454
C                22.3597922690       25.4553573063       79.7730950004
O                21.8766629235       26.0304750979       80.7368736526
C                22.3059167509       22.9835872107       79.2708394989
C                21.4739709304       22.4575354235       80.4482301761
C                22.3771605786       22.6315108625       81.6789747733
H                24.1240836162       24.2221245176       79.5000690496
H                21.6705672340       23.3360106717       78.4626835076
H                22.9744129069       22.2058580767       78.9057023343
H                20.5789175862       23.0686443827       80.5771052697
H                21.1823608870       21.4191071672       80.3170693034
H                21.7730417597       22.8504785193       82.5593627437
H                23.0002869136       21.7498025979       81.8657599692
N                12.8644202448       24.0481045864       83.8879810343
C                13.6163916569       22.8532391772       84.1834603253
C                13.3018015047       21.7299909488       83.1896694690
O                14.1714267535       20.9478502004       82.8194050148
C                13.3286458863       22.3713757320       85.6015251502
C                14.2789154510       21.2235952325       85.9527071837
C                14.2315325618       20.7761363037       87.4095984406
N                14.6740467011       21.8630941139       88.2598775134
C                14.9206572536       21.7707910346       89.5524596757
N                14.7788576204       20.6154265358       90.1936144826
N                15.2321926786       22.8896066780       90.2275181451
H                12.2513413730       24.4310368259       84.5999679490
H                14.6906409745       23.0622861993       84.0711534922
H                13.4481997672       23.2198485875       86.2781733572
H                12.2908954356       22.0359461016       85.6547402327
H                14.0493465644       20.3622809346       85.3261729150
H                15.3082410797       21.5024635925       85.7191965807
H                13.2161322186       20.4802224381       87.6903517534
H                14.9164244694       19.9310304422       87.4994695274
H                14.8019353249       22.7634320238       87.8166962518
H                14.7158252100       19.7476804419       89.6849292153
H                15.0610012748       20.5258479265       91.1573047448
H                15.1818505794       23.7903533989       89.7768065870
H                15.2519606391       22.8742113130       91.2346637457
N                15.3371137402       21.4839532263       80.1485631127
C                16.6939744688       21.0516728500       80.3818297000
C                16.7237169877       19.5214373476       80.5788673197
O                15.7157669076       18.8374798623       80.5503729189
C                17.2663161471       21.8522546766       81.5504290322
C                17.0940649088       23.3537635306       81.3114265893
S                18.3701000258       24.3152930522       82.2306319826
C                17.3614770727       25.4117931854       83.2529765491
H                14.7108352163       21.3419558908       80.9317734354
H                17.2467761920       21.2657658906       79.4565194352
H                16.7407173980       21.5545097447       82.4593904099
H                18.3260203047       21.6298548703       81.6760670949
H                17.2309576780       23.5902742381       80.2565296443
H                16.1124642437       23.6996984858       81.6284164418
H                18.0503967298       26.0861809951       83.7506432663
H                16.6979726290       25.9793223861       82.6131397889
H                16.8119768812       24.8363279337       83.9899531649
N                17.9516174867       18.9680469922       80.6904927146
C                18.1646863605       17.5917912514       80.2659383520
C                18.3947803196       16.7007859133       81.4872846182
O                19.2735235806       16.9782988042       82.2950020900
C                19.3354409822       17.5574691648       79.2560226926
C                20.6853970806       17.8618172587       79.9040941296
C                19.3904658559       16.2246063551       78.5172493606
H                18.7634136579       19.5663172696       80.7003282939
H                17.2383279095       17.2868998956       79.7636861256
H                19.1158147976       18.3454466353       78.5270365777
H                21.4377268753       17.9856497979       79.1296775933
H                20.6568543208       18.7731243546       80.4970235225
H                20.9978933422       17.0508518036       80.5561725210
H                20.1509501037       16.2738648749       77.7425363593
H                19.6558062911       15.4188234119       79.1943508336
H                18.4375458392       16.0001325359       78.0450509185
N                17.5636372013       15.6548662300       81.6116146522
C                17.4202810764       14.6985860601       82.7163402836
C                17.8767462358       15.3029971759       84.0756291569
O                18.6910809387       14.7523620244       84.7960559688
C                18.0404940479       13.2758687595       82.5355204366
C                18.8138977660       12.8280670464       81.2757284693
C                18.0420188846       12.9759868847       79.9630823816
C                20.2071237782       13.4514458890       81.1772957478
H                16.8749139670       15.5309947134       80.8825025549
H                16.3365740205       14.5659723371       82.8164159447
H                18.7178273205       13.1363661875       83.3820726592
H                17.2218072990       12.5670909357       82.6658097337
H                18.9651584794       11.7521360592       81.4294843133
H                18.5745036922       12.4519981249       79.1725277477
H                17.0508868961       12.5399785124       80.0543144402
H                17.9464031112       14.0152153885       79.6696229821
H                20.6874265701       13.1565548291       80.2466324545
H                20.1617983921       14.5358702353       81.2146997615
H                20.8354979100       13.1003380852       81.9935234575
N                17.2275880551       16.4289904639       84.4490693069
C                17.8165379871       17.3474653292       85.4181030074
C                16.8680765668       17.7175753460       86.5757693127
O                16.5365504025       18.8768418028       86.7626390227
C                18.2795738214       18.6266610405       84.6861060560
C                19.6435832105       19.1583847364       85.1202506329
C                20.8487663218       18.3586185418       84.6043286055
N                21.1078182849       17.1538055919       85.3740846851
C                21.2683956258       15.8980846863       84.9633030137
N                21.1780736195       15.5718158180       83.6717468058
N                21.6177934429       14.9759714995       85.8529320883
H                16.5766495716       16.8547173197       83.8018877673
H                18.6595301725       16.8172750384       85.8736603552
H                18.3119726258       18.4309456614       83.6168330117
H                17.5321905278       19.4013838105       84.8676056169
H                19.7437763455       20.1717859322       84.7314909378
H                19.6764581960       19.2168202589       86.2065768488
H                20.6892286266       18.0995627644       83.5611799337
H                21.7393680421       18.9921651692       84.6755642940
H                21.2876523010       17.2959317034       86.3577353315
H                20.5780387036       16.1475210486       83.0833358364
H                21.1709050335       14.5879330876       83.4562089705
H                21.6208432745       15.2297905800       86.8481802004
H                21.6103459792       14.0042807307       85.5986513502
N                16.4292989018       16.7259973273       87.3772523542
C                15.5380274709       17.0547248626       88.4759359124
C                16.0436788304       16.8361790822       89.9190541652
O                15.4421574468       17.3636102725       90.8451080330
C                14.1610036130       16.4019748368       88.3029410602
H                16.7570145095       15.7828104637       87.2452134538
H                15.4140517634       18.1409572981       88.3964408834
H                13.5235521522       16.6983712438       89.1324708710
H                13.7151721984       16.7336902146       87.3700095637
H                14.2461496820       15.3194276818       88.2976528275
N                17.1103149742       16.0312109921       90.0773452709
C                17.7243141148       15.7946986675       91.3714631321
C                18.8058616524       16.8401523728       91.7293791543
O                19.4750487369       16.8062264511       92.7463751553
C                18.2113473058       14.3131882536       91.4655066164
O                19.3214313192       14.2411663156       92.3308838666
C                18.5390257636       13.7069361698       90.0951847714
H                17.7251118459       15.9026266412       89.2754666877
H                16.9440539286       15.9525266546       92.1277139158
H                17.3793141602       13.7326290974       91.9018090019
H                19.6141915092       13.3216743592       92.3729536899
H                18.9595430486       12.7144783974       90.2413709253
H                17.6391182201       13.6127279062       89.4955852423
H                19.2718269909       14.3107776764       89.5651005609
N                18.8441496955       17.8801829431       90.8841481999
C                19.7835499466       18.9737699577       90.9904646966
C                18.9856824761       20.2470891940       90.6777289161
O                18.2405286344       20.3246406492       89.7119038992
C                20.9605515672       18.7828374086       90.0177081642
C                20.4868811707       18.4432228382       88.5992655751
C                20.3180233497       16.9141504389       88.3283842000
O                21.3759844109       16.2603637872       88.1764869568
O                19.1675711088       16.4485996211       88.2126586728
H                18.3837540415       17.8151966226       89.9879665844
H                20.1546547511       18.9798633579       92.0193753524
H                21.5557144054       19.6984493216       90.0054242051
H                21.5965324525       17.9727404787       90.3869813892
H                19.5368113866       18.9419140680       88.3961613433
H                21.2411667093       18.8074676317       87.8967501772
N                19.1133303499       21.2141020846       91.6004533726
C                18.3609164908       22.4395140341       91.5277925406
C                19.1746096714       23.5867320507       90.9339022749
O                20.3887876740       23.5957372849       90.8010727377
C                17.8493649007       22.8546081588       92.9068020279
H                19.8179955960       21.1340122237       92.3147760843
H                17.5355076533       22.2271705394       90.8384241052
H                17.2503592878       23.7580578312       92.8424108504
H                17.2587838825       22.0530231259       93.3437321085
H                18.6897605283       23.0531783549       93.5701828269
N                18.3959769907       24.6084429007       90.5601313112
C                18.9837827227       25.8747447042       90.2387267762
C                17.9511470399       26.9253236329       90.6279665947
O                16.7742351138       26.6150810064       90.7597966448
C                19.3760737891       25.8936937715       88.7506328546
C                18.1724238958       25.8165653956       87.8500973277
C                17.6207156127       24.5994819190       87.4733692342
C                17.5662804739       26.9922708955       87.4269691513
C                16.4612323578       24.5738596216       86.7215992989
C                16.4011818748       26.9648084457       86.6879508119
C                15.8401935380       25.7512299705       86.3434899661
H                17.3971783626       24.6456585191       90.7283145401
H                19.8954341374       26.0028822178       90.8378255464
H                19.9269576924       26.8151913484       88.5555589881
H                20.0331957634       25.0348276498       88.5953700698
H                18.0941581931       23.6766295221       87.7758558243
H                18.0039677248       27.9328138462       87.7316903273
H                16.0641006788       23.6247075703       86.3991038899
H                15.9394585055       27.8891679752       86.3807307722
H                14.9271826421       25.7228530108       85.7719899095
N                27.8615045644       13.8282725612       82.8877464863
C                27.5808301892       14.0762001052       81.4960944714
C                28.6264651435       15.0010762280       80.8199436148
O                28.3733163435       15.6163760973       79.7950092223
C                26.1618199473       14.6515126596       81.3614488832
C                25.8821760129       15.8537047258       82.2637273740
O                26.4421700517       16.0636301361       83.3342459730
N                24.9166245593       16.6584486536       81.8071095948
H                27.5515916853       14.5676725824       83.5165390099
H                27.6313210066       13.1110559262       80.9730520973
H                26.0016636999       14.9244785903       80.3179401060
H                25.4390198868       13.8790721616       81.6363741383
H                24.6403505090       17.4589487499       82.3547014801
H                24.4636241521       16.4970331339       80.9242238830
H                28.5020148835       24.7633203997       85.5296864706
H                22.2513320442       25.8787453685       78.8736624413
H                13.4313688981       24.7194213965       83.6932941962
H                12.3742069472       21.6248136528       82.8311920315
H                15.3299309440       22.3648612640       79.9643093842
H                18.2336360606       27.8729609778       90.7769075749
