 256 
 
N                24.4731003949       33.0989006043       30.8899680414
C                25.0340809609       32.5822547840       32.1377538703
C                25.3445836635       33.6655036441       33.0938176965
O                25.8625123715       34.6396220971       32.7553435049
C                26.2905677141       31.7273205539       31.9284186206
O                25.9711038518       30.3518732133       31.6533601271
H                24.7500323216       32.4333336828       30.1428465289
H                23.4568821329       33.1316645359       31.0278846820
H                24.8188887462       34.0701407510       30.7726298928
H                24.2816190303       32.0135952268       32.5705942565
H                26.7350814767       32.0368273215       30.9891488467
H                27.0329816553       31.7568275687       32.7482245304
H                26.7622128297       29.8047785239       31.4880696511
N                25.0290857632       33.3807437848       34.4016897900
C                25.4657574422       34.2860990285       35.4831396639
C                26.1966623752       33.4424307450       36.5602764683
O                25.7765429780       32.4231822395       36.8588942843
C                24.2596946666       35.0492859796       36.1301426521
C                23.1182325818       34.0945630888       36.3765506963
C                24.6291887610       35.7597433349       37.4395588170
H                24.4491510761       32.6238435997       34.7426317404
H                26.2151005030       35.0277264614       35.2150805804
H                23.8814882839       35.7971380235       35.4329334280
H                22.2893532500       34.6779455757       36.7930956641
H                22.8732710311       33.6477022905       35.4155951308
H                23.4922602946       33.3399278480       37.0721505358
H                23.7194021841       36.2818233782       37.8191452230
H                24.9987152098       34.9637784572       38.1175561867
H                25.4319214714       36.4637901260       37.1637299267
N                27.2833463912       34.0908701937       37.1310815677
C                28.0827785474       33.3943739274       38.1012778733
C                27.8595631959       34.1062945068       39.4288346167
O                27.0254249334       34.8808952163       39.6358114823
C                29.5437159905       33.3277620314       37.6222232230
S                30.5780934595       34.6917522527       37.7101476594
H                27.7247186438       35.0243921382       36.8813868290
H                27.7551752001       32.3497244320       38.2272592003
H                30.0201191849       32.5490512741       38.2093793108
H                29.5283736835       33.0827258551       36.5619414195
N                28.8707041466       33.8281125693       40.3691562897
C                28.6878559391       34.3481295979       41.7055614601
C                29.4432465119       35.6308587077       42.0009453775
O                29.2064606115       36.2457319133       42.9715592862
C                29.1388358560       33.2971689531       42.7367249482
H                29.6768252088       33.2369348512       40.2732791192
H                27.6347356272       34.5586843466       41.9407304058
H                29.0292287834       33.7089513263       43.7631221002
H                28.5071293458       32.4100348734       42.6033558726
H                30.1864184732       33.0470616242       42.5151249484
N                30.4194763578       35.9717789061       41.0719990096
C                31.0809662761       37.2623106721       41.1459927001
C                30.0499293058       38.3972141373       41.1263401661
O                29.0677426345       38.2977774591       40.5100138764
C                32.0782898282       37.4110188361       39.9927611197
H                30.8715551304       35.3594805586       40.3838891003
H                31.6584166746       37.3600209999       42.0582704922
H                32.5579201682       38.4003431622       40.1107726656
H                32.7949747567       36.5774661216       40.0868670328
H                31.4882702269       37.3366094434       39.0716700642
N                30.4319321958       39.5035910770       41.9169385759
C                29.4433344702       40.5695859311       42.1198234978
C                29.0349446294       41.3060130895       40.8465495295
O                27.9959916330       41.6449590832       40.6012503732
C                29.9457288130       41.5760314849       43.1710208318
H                31.3435215418       39.7425710951       42.3328668062
H                28.5368342442       40.1358009500       42.5658835333
H                29.1870950831       42.3732480184       43.3206996440
H                30.1433147849       41.0208172783       44.1044997251
H                30.8885194446       41.9796529054       42.7788231759
N                30.1428661853       41.5381412194       39.9775691166
C                29.8340683699       41.9992989818       38.6539183106
C                30.1725270594       40.9310931447       37.5968764628
O                31.1706598058       40.8482125845       37.0142836066
C                30.6594378874       43.2460322897       38.3769778201
C                29.8336064638       44.5429459385       38.5045644950
O                28.8610592724       44.5435667443       39.1367676374
N                30.3021612630       45.6631927965       37.7808740902
H                31.1113819561       41.4549398051       40.1859491103
H                28.8053240878       42.3259333806       38.4845695396
H                31.4625100598       43.3059679717       39.1102414466
H                31.0194088981       43.2320219720       37.3623716507
H                29.7512136208       46.5359775338       37.8600066706
H                31.1469468229       45.5268707813       37.2561123014
N                29.1440308097       39.9859218980       37.6016173436
C                29.2125892275       38.9953800257       36.5568225513
C                28.8822519638       39.6636807066       35.2691110000
O                27.8251979300       40.2016199187       35.1678161308
C                28.2731534059       37.8023274037       36.7792703061
S                28.0052237901       36.5481663175       35.3332288150
H                28.3942896839       39.7768461941       38.2542099909
H                30.1385995937       38.4630013383       36.5444175242
H                28.6835915706       37.1826588041       37.5998125182
H                27.3068109932       38.2095766855       37.0847461421
N                29.8735712188       39.6015746398       34.3575833116
C                29.7364940808       40.2348700743       33.0793644581
C                28.8803169290       39.4849059642       32.0926099463
O                29.0776451015       39.5776173139       30.9368490817
C                31.1351265390       40.4875045735       32.5777536437
C                31.9354467834       40.7671353462       33.8390713771
C                33.4091739798       40.7838147586       33.5420401500
O                33.7634609075       40.2784795515       32.5381255738
N                34.2878710119       41.2985843436       34.5100572569
H                30.7532843791       39.0467062949       34.3733001810
H                29.2385845099       41.2003310136       33.0612400911
H                31.5389185331       39.5940921430       32.1348650997
H                31.1729786806       41.3791475851       31.9598817806
H                31.7487438288       41.7810745447       34.1111596901
H                31.6612020179       39.9825835026       34.5553271115
H                33.8574891221       41.7281143661       35.3141691392
H                35.3018079535       41.3230348242       34.2858228995
N                27.9223258111       38.7232453650       32.5492644451
C                27.0644337550       37.8336940986       31.8349522884
C                27.8325884380       37.5509092261       30.1827815859
O                27.0402617744       37.6097595984       29.4432240821
C                25.6185746870       38.3704562533       32.2799663010
C                24.6052971518       38.6715534897       32.4845969726
C                23.6495846223       39.1340615555       31.9474830570
N                22.2153720171       38.3668212345       33.3384808809
C                21.4755238757       37.7704945352       32.6560691975
N                21.6718700355       37.0587076075       31.4561130334
N                20.4826190447       37.1212470310       33.6638678063
H                27.4247329695       38.4900655765       33.5152060556
H                26.9432000459       36.8943805761       32.0972960369
H                25.8208318303       39.5272411865       31.6092947388
H                25.2562777420       38.1041965909       30.6496291577
H                24.5479943363       37.4563182842       33.1304599572
H                25.1836972427       39.0601207324       33.8568341819
H                23.3683299090       40.2416142785       32.7044240114
H                23.1650800591       39.1172316560       31.3718624676
H                22.2036207133       38.7459840722       34.1844604123
H                22.3906701851       37.4587753862       30.8088657823
H                20.9869734646       36.4342339577       31.0737388640
H                20.6551167127       37.5384105138       34.2685703549
H                19.9646312442       36.3534224871       33.0559519756
N                28.7366311410       36.5324400212       30.5340049797
C                29.3025281932       35.9403807471       29.3635904625
C                28.3014143872       35.1985617215       28.6927370027
O                27.3898843187       34.3582005808       29.0768465867
C                30.3403059494       35.0054479803       29.7825726654
C                30.7208768169       35.5277223675       31.1427016795
C                29.4358693073       35.9686268181       31.7267927536
O                27.9213101165       35.2989699875       27.4712238054
H                29.7669385474       36.6420403613       28.6786647995
H                30.0217500865       34.0375209676       29.9417947337
H                31.1898762477       35.1207695632       29.2277832655
H                31.0867592752       34.7018678641       31.6006494534
H                31.3971960114       36.2897308415       30.9528841927
H                28.9166584343       35.1216504640       32.2301251100
H                29.6604080267       36.7424950867       32.4459428220
N                32.4299223453       30.9263292300       39.5070292036
C                32.5444872661       31.7081125103       39.0300193015
C                32.9718005837       31.3991370839       37.6023156466
O                33.5426939165       30.4524495720       37.2898875904
C                33.5879688944       32.5277996327       39.6500411690
C                33.4077053045       32.7008453499       41.0899239786
C                34.1093578222       31.8590472243       41.9374223335
C                32.5400465835       33.5992772749       41.5823277844
C                33.8838997405       31.9899178518       43.2877623693
C                32.3090336474       33.7421409247       42.9401783958
C                33.0046116718       32.8954326665       43.8270018350
H                33.1277160395       30.0464578124       39.8749204302
H                32.0834377856       30.6590089042       40.5539955162
H                31.8615816384       29.9797313216       39.3105774759
H                31.7207100341       32.2006278721       38.9781560935
H                34.5212534116       32.0906228106       39.5118700702
H                33.5299000811       33.5096058529       39.2786536896
H                34.7693607549       31.0990911808       41.5410608200
H                31.9535360038       34.2470051797       40.9749250400
H                34.4203045551       31.3311035061       43.9939302883
H                31.6449187078       34.4494283397       43.3374418421
H                32.8227506318       32.9977112546       44.8763359921
N                32.4218123542       32.2952646917       36.6930259307
C                33.0943092173       32.3555632802       35.3697432704
C                34.5094310137       32.8186511190       35.4689456938
O                34.8018076365       33.7344655835       36.1746023521
C                32.4256636683       33.2457138236       34.3176267475
C                30.9430212743       33.0217190589       34.0838131028
N                29.9423606456       33.7946840510       34.6482692121
C                30.2188256139       31.9945879310       33.4884127429
C                28.7076812471       33.4196562015       34.3272549485
N                28.8697055498       32.3155888727       33.5458632760
H                31.5137355674       32.8276845449       36.6450810276
H                32.9673329609       31.4091999379       34.9247006772
H                32.4931714901       34.2496567648       34.6813235635
H                32.8690480771       33.1066023517       33.3235161571
H                30.7776769821       31.1877162222       33.0559500928
H                27.7078043739       33.8569432007       34.5418950519
H                28.1092601997       31.7595484135       33.1505859264
N                35.4376777643       32.1086282738       34.7373427012
C                36.8180816594       32.5714473680       34.8441742895
C                37.0750179011       34.0413347727       34.4590018844
O                37.6808066051       34.7516095860       35.1734544267
C                37.7142642990       31.6704748081       34.0039549086
C                37.9749894162       30.3136707974       34.6311161722
C                38.7439110872       29.3477220905       33.7198599705
O                39.3118084496       29.6963244551       32.7750023379
N                38.7037168432       27.9828377453       34.1300926151
H                35.2921707628       31.3557074351       34.0818846955
H                37.1492340663       32.3774272293       35.8653292941
H                37.2060482683       31.4453065695       33.0820779122
H                38.6934210373       32.1095903248       33.8760949436
H                38.5586114139       30.4688616526       35.5241314573
H                37.0240738903       29.8786372345       34.8296409011
H                38.1531746454       27.7919162922       34.9333069836
H                39.1877713928       27.3217998119       33.5239456266
N                36.4411881351       34.3935405941       33.2644431994
C                36.4554114806       35.7866810128       32.8102588843
C                36.1278783702       36.8105281984       33.9111990580
O                36.8831974109       37.6455686965       34.2412514278
C                35.5413890331       35.9420058122       31.5906544476
C                35.1225795151       37.3721850179       31.4041585330
C                36.1818669102       35.4046837139       30.3173300526
H                35.8527948651       33.8208045450       32.6472686727
H                37.4685870823       35.9882908976       32.4810111119
H                34.6571451017       35.3545991089       31.7803365585
H                34.4685429312       37.3756646939       30.5317563903
H                34.6226007433       37.6308302448       32.3387852373
H                36.0589253569       37.9055083068       31.2309293974
H                35.4635350610       35.5168912178       29.4799970742
H                37.1162319716       35.9692336598       30.1572745411
H                36.3814043358       34.3416315799       30.5186156852
N                34.8731357679       36.6179936655       34.5059094596
C                34.4104991115       37.4390245753       35.6275648908
C                35.3383626100       37.5244347242       36.8348487803
O                35.3054693715       38.3912836239       37.6541941084
C                33.0964122680       36.9216110044       36.1567161604
S                31.7566085501       36.5591992483       35.1847505172
H                34.2420583608       35.8282522934       34.3710310968
H                34.3070048892       38.4095559286       35.1748537524
H                33.2631123597       35.9635525974       36.5500954626
H                32.7076582250       37.5998161098       36.8699030692
N                36.3800607029       36.6277584485       36.8838363540
C                37.2133238654       36.6274999999       38.0714567378
C                38.6682763723       36.8268199161       37.6709153824
O                39.5793054851       36.9578134444       38.4314742039
C                36.9865053321       35.3393634745       38.7959137827
C                38.0837142763       35.0646241587       39.7784541070
C                35.7697709207       35.3414169504       39.6183119062
H                36.5410440264       35.8831055007       36.2276929154
H                37.0632480810       37.3792632557       38.8646400132
H                37.0547672779       34.5208742997       38.1679475072
H                37.8346845243       34.1418352029       40.2295497104
H                38.9322350139       35.0076492728       39.1658344745
H                38.0402886658       35.8779007264       40.4531665045
H                35.6203781610       34.3835572439       40.1249293198
H                35.8021198289       36.1910267568       40.3136086019
H                34.9929471698       35.4645890808       38.8868780729
N                38.8935202350       36.7683586967       36.3066355452
C                40.1166803329       37.3289205708       35.7911818576
C                41.1502280689       36.4791599016       36.0705928247
O                42.2207189043       36.6014470767       36.7815433673
O                41.3045926352       35.2363814720       35.7453154062
H                38.2598449987       36.5863547642       35.5512152173
H                40.1304107444       37.4256599009       34.7305336930
H                40.4026251871       38.2608068834       36.2050765342
Zn               30.0996715412       35.4015433080       35.3881251687
