 414 
 
N                21.2318769270       70.4680661529      -13.5232237672
C                21.7817858169       70.9742011317      -14.7724863935
C                23.0942742891       71.7658137062      -14.5855453839
O                23.8760613649       71.8809304731      -15.5196186240
C                20.7216596365       71.7862358895      -15.5248432094
C                21.0796232916       72.0982351391      -16.9799499287
C                19.9971741081       71.6151707260      -18.0163072418
O                19.8519201431       72.3395206303      -19.0256709277
O                19.3940275545       70.5496256012      -17.7654571246
H                20.2318857226       70.5540611072      -13.3975729366
H                22.0605976673       70.1185003710      -15.4071376247
H                19.7898312638       71.2105990312      -15.5198231177
H                20.5466743998       72.7200694224      -14.9846348108
H                21.2163592214       73.1680888538      -17.1368778447
H                22.0083695803       71.5988551475      -17.2589819988
N                23.3471147819       72.2931146642      -13.3754873863
C                24.6613625377       72.7738815798      -13.0697388148
C                25.5547548818       71.9187997786      -12.1894068198
O                26.5966838431       71.5492235160      -12.7355540608
C                24.6830541156       74.2011864560      -12.5606717278
C                26.0814339211       74.5255485551      -12.0427668757
C                24.3033862121       75.0701918993      -13.7490680331
H                22.6666678842       72.2646986627      -12.6339660977
H                25.1734597723       72.7501671612      -14.0430505978
H                23.9373249964       74.3122992630      -11.7672817509
H                26.1615336063       75.5880863972      -11.8280634531
H                26.3043649966       73.9783089770      -11.1327646794
H                26.8181510682       74.2640681687      -12.7975115134
H                24.2331387255       76.1170503292      -13.4620275943
H                25.0370220512       74.9676864623      -14.5428558404
H                23.3308920968       74.7685985587      -14.1324736163
N                25.3907200457       71.7115289802      -10.8808963865
C                26.3493411199       70.7938178730      -10.2584645306
C                26.7976943020       69.7359050850      -11.2849031233
O                27.9864588208       69.4279529648      -11.3470786617
C                25.8645853607       70.0902369153       -8.9851599279
C                24.4762114893       69.4191917814       -9.1138616181
C                24.2890292152       67.8573795191       -9.3166633392
O                25.0829156098       67.0773558678       -8.7546233547
O                23.2814729969       67.5233497427       -9.9819463055
H                24.5087672712       71.9090400457      -10.4312442892
H                27.2607799833       71.3574536716      -10.0162444909
H                26.6145646071       69.3468025593       -8.7049138101
H                25.8034348315       70.8360201386       -8.1931928538
H                23.9277628788       69.5901491605       -8.1814977927
H                23.8983434679       69.8913886852       -9.9063438683
N                25.8522485135       69.1299152728      -12.0250984378
C                26.1472874929       68.0516027047      -12.9627854378
C                27.3799341110       68.3165490188      -13.7987450252
O                28.2304480762       67.4488740912      -13.9808760064
C                25.0377354492       67.8151739134      -13.9923449861
C                25.3860639520       66.6679650978      -14.9461693054
C                25.1391485913       66.9591110349      -16.4810673857
O                25.2396310278       68.1338205050      -16.8794710375
O                24.9309979924       65.9283855172      -17.1700803393
H                24.8776947833       69.3748403559      -11.9244849277
H                26.3098020365       67.1341319481      -12.3842636984
H                24.1014522039       67.6158785054      -13.4630936510
H                24.8746561407       68.7308242075      -14.5702790931
H                26.4420271480       66.4152455196      -14.8630273576
H                24.7915091120       65.7870069409      -14.7127462313
N                27.3644474622       69.4919065750      -14.4056261147
C                28.4641540913       69.9722084933      -15.1881060685
C                29.7766992811       69.9277813980      -14.3868293399
O                30.7514628605       69.2734538820      -14.7352025431
C                28.1448515144       71.3934184668      -15.6061166276
C                29.4041831917       72.1162125240      -16.0744282345
C                29.1178579024       73.1047598900      -17.1959993677
N                28.7104510591       72.3865274438      -18.4058719089
C                28.9116410284       72.7635590207      -19.6736146447
N                29.5121320275       73.9205727449      -19.9725943541
N                28.5175914349       71.9420925988      -20.6627843928
H                26.6755230995       70.1752294234      -14.1272174520
H                28.5900562733       69.3093157694      -16.0559705486
H                27.3626364384       71.3654944132      -16.3662976777
H                27.7219968203       71.9176658625      -14.7476468310
H                29.8608907831       72.6575234925      -15.2522670987
H                30.1303577426       71.3900434228      -16.4460449824
H                28.3294698730       73.8019337739      -16.9005407800
H                30.0289036650       73.6677452485      -17.4087764206
H                28.2449716846       71.5039173988      -18.2458245907
H                29.9462690905       74.4840078395      -19.2590038580
H                29.7367370944       74.1640333233      -20.9227644526
H                27.9805227162       71.1126004797      -20.4669987488
H                28.5313553134       72.2615291810      -21.6173923274
N                29.8480095446       70.7257245908      -13.3250204720
C                31.1115397353       70.7752157353      -12.6507543447
C                31.4102908245       69.5131161008      -11.8413197138
O                32.4643331252       69.3799477631      -11.2347040422
C                31.3324677696       72.1020203003      -11.9332717410
O                30.3721499162       72.1918893527      -10.8968117619
C                31.2574603448       73.2650186767      -12.9481510154
H                29.0317380798       71.1449918857      -12.9035426281
H                31.8778776124       70.7317122041      -13.4420003440
H                32.3353007913       72.0652928624      -11.4815423725
H                30.5550612452       72.9881360758      -10.3813608047
H                31.6107304364       74.1867549082      -12.4906779251
H                31.8766415271       73.0625711487      -13.8149379208
H                30.2277448532       73.4143531809      -13.2599413287
N                30.5592268038       68.5046873773      -12.0304665022
C                30.9312535737       67.1621368735      -11.6397882053
C                31.8614682039       66.5849331955      -12.7016803502
O                32.9316328878       66.0610536210      -12.4032169904
C                29.7146217658       66.2520332049      -11.5506772701
C                30.1385278040       64.7882900944      -11.4900861324
C                28.9307177751       63.8743969938      -11.3319589550
N                28.1154017417       63.8637412300      -12.5379690469
C                26.8315851030       64.1895924566      -12.6490010696
N                26.2408885166       64.9661130461      -11.7438663653
N                26.1187068549       63.6974416476      -13.6639854984
H                29.5848952426       68.6801266118      -12.2283838931
H                31.4821404581       67.1917542831      -10.6915653229
H                29.1414968785       66.5259595840      -10.6619742349
H                29.0893116766       66.4204963179      -12.4270757043
H                30.6622974598       64.5098744011      -12.4037582659
H                30.8127879344       64.6312671640      -10.6489723555
H                29.2722281159       62.8501517561      -11.1585762782
H                28.3278438255       64.1723852517      -10.4739688114
H                28.5500078502       63.3851149531      -13.3165582956
H                26.7567444414       65.3809651513      -10.9848021679
H                25.2483056829       65.1360227669      -11.7584814622
H                26.5196220950       63.0505271457      -14.3227034657
H                25.1535955538       63.9519192842      -13.7922284436
N                31.3747810071       66.6503310140      -13.9393737428
C                32.1536324311       66.2117437103      -15.0809861613
C                33.5844473138       66.7187248230      -14.9081707832
O                34.5190137545       65.9241029414      -14.9108681134
C                31.5219465520       66.6498704268      -16.4006090650
C                30.7178013906       65.5339395566      -17.0805529078
C                29.5296306808       65.1062285844      -16.2294986951
C                28.9210049749       63.7665657661      -16.6306717832
N                27.9354186506       63.8214449853      -17.7435938271
H                30.5073219760       67.1414313289      -14.1137916391
H                32.2353459562       65.1146159639      -15.0598913963
H                30.8831309962       67.5127421776      -16.2112356823
H                32.3116697279       66.9639072781      -17.0840860248
H                30.3897454918       65.8859609136      -18.0589864926
H                31.3759251048       64.6774522465      -17.2252381390
H                29.8804919098       64.9936497563      -15.2060319666
H                28.7611392249       65.8825730000      -16.2302471635
H                29.7171736152       63.0710084942      -16.8933856445
H                28.3912993366       63.3706856470      -15.7632769530
H                27.2611128179       63.0528503208      -17.6531760507
H                27.3926023728       64.6917526933      -17.7364307914
H                28.3096485320       63.6337641446      -18.7321722028
N                33.7668537647       68.0312195961      -14.7339821228
C                35.1107637634       68.5387304215      -14.4470722228
C                35.8941429574       67.5462965569      -13.5798966370
O                36.9549251066       67.0612703655      -13.9562268095
C                35.1429426627       69.8773586688      -13.6940960342
C                35.0169364295       71.1378932448      -14.5578512349
C                33.9315989101       71.0283565882      -15.6313089969
C                34.7572154894       72.3151136857      -13.6097071093
H                32.9726291481       68.6560144399      -14.6984511551
H                35.6731890075       68.6216982691      -15.3869538071
H                34.3472256375       69.8599666496      -12.9432745546
H                36.0925349495       69.9372405402      -13.1614224293
H                35.9664942651       71.2896661585      -15.0752351975
H                33.8650706457       71.9634908060      -16.1826423250
H                34.1672729679       70.2388157152      -16.3378570326
H                32.9551954388       70.8225867029      -15.1965502437
H                34.6221772089       73.2382685562      -14.1682128138
H                33.8618905358       72.1320418244      -13.0250616936
H                35.5873197535       72.4403331633      -12.9186699524
N                35.4617612792       67.3664674131      -12.3241924194
C                36.2421438261       66.5081650706      -11.4519970760
C                36.6754703520       65.2197245362      -12.1944721404
O                37.8316355419       64.8154634066      -12.1302732362
C                35.4943308634       66.2059879380      -10.1417118578
C                36.0502665832       66.9965133259       -8.9444105764
C                37.3758610353       66.3916553518       -8.4714081245
O                38.4206340507       66.5337819167       -9.0885503601
N                37.3353589343       65.7459355549       -7.2886111621
H                34.5077664015       67.5808761348      -12.0700756756
H                37.1867843327       67.0165346658      -11.2199064728
H                34.4367392932       66.4317348336      -10.2814764673
H                35.5757109332       65.1354345631       -9.9315595612
H                36.2213557782       68.0262407542       -9.2568573416
H                35.3251812204       66.9840522390       -8.1333765998
H                36.4589182701       65.5628267558       -6.8291601511
H                38.1103630641       65.1409047104       -7.0599383579
N                35.6960404981       64.5605737106      -12.8372044781
C                35.8630504950       63.2525023551      -13.4437562981
C                36.8722673189       63.1713813548      -14.5864470229
O                37.4777485043       62.1398276011      -14.8680910860
C                34.5991101335       62.8343563562      -14.1723214111
C                33.3701024890       62.6702682093      -13.2949498308
C                32.3972250449       62.1597722280      -14.3254868735
O                31.7460224079       62.9222872946      -15.0183738491
N                32.4216547929       60.8295778454      -14.4994321766
H                34.7955891783       65.0151314416      -12.9342576958
H                36.1478647630       62.5279579934      -12.6684326222
H                34.3858572317       63.5982101121      -14.9227652974
H                34.8188767556       61.8917778344      -14.6787465847
H                33.5456517625       61.9725253794      -12.4786774947
H                33.0511045702       63.6336528429      -12.8981431606
H                32.9419618819       60.2285763553      -13.8839653916
H                31.8929365117       60.4099828586      -15.2475137400
N                36.8513434629       64.2427205539      -15.3608846229
C                37.7343028341       64.3524339370      -16.4835519391
C                39.1221443180       64.6563373588      -15.9248534145
O                40.0562335336       63.9316940411      -16.2538987266
C                37.2215436456       65.3921388409      -17.4636297060
C                36.0683074283       64.9665922476      -18.3746316350
C                36.0408476334       65.5718725471      -19.6381119579
C                34.9933730946       64.1152576612      -18.0939257066
C                35.0109751739       65.4076381240      -20.5520381163
C                33.9322382859       63.9568164303      -18.9989156212
C                33.8991553952       64.6300376397      -20.2306391991
O                32.8789886996       64.6303650251      -21.1378101110
H                36.2992471164       65.0536525199      -15.0931725889
H                37.8146263063       63.3695240130      -16.9669541382
H                36.9213857437       66.2742388615      -16.8905579215
H                38.0459303854       65.6886146926      -18.1142870967
H                36.8589028711       66.2191144156      -19.9190509263
H                34.9392724330       63.5876387421      -17.1546947961
H                35.0322066112       65.9159647670      -21.5011274481
H                33.1018336427       63.3215615199      -18.7240749417
H                32.1364294373       64.0811437332      -20.8509318304
N                39.2425177098       65.6616189186      -15.0567853842
C                40.4685358849       65.9117421366      -14.2894085491
C                41.1107710573       64.5322918166      -14.0881474536
O                42.2733284863       64.3144693381      -14.4063575514
C                40.1506326490       66.7023985270      -12.9943535664
C                41.3012013708       67.5771436834      -12.4724966302
C                40.8927337099       68.6136467294      -11.4010070376
N                40.9252759537       68.0363457920      -10.0665820251
C                41.2311807982       68.6137239334       -8.8986905699
N                41.3536552076       67.7971157772       -7.8328360078
N                41.5006717218       69.9058139897       -8.7587877341
H                38.4311698718       66.2041621375      -14.7746276176
H                41.1763144366       66.4840597441      -14.9030501797
H                39.3045512235       67.3459770740      -13.2410980784
H                39.8122713835       66.0106982638      -12.2231622958
H                42.0976912840       66.9505107433      -12.0706674503
H                41.7237130687       68.1196035656      -13.3161397827
H                41.5900518848       69.4541717610      -11.4167362200
H                39.8880004912       68.9927524424      -11.6119234563
H                40.5625479884       67.0934647165      -10.0057739878
H                41.0879091866       66.8300489520       -7.9248534848
H                41.4486572245       68.1727322526       -6.9050174406
H                41.1706694176       70.6796379040       -9.3677566931
H                41.7620923926       70.2372243525       -7.8426669152
N                40.2493723153       63.6239983734      -13.5991497297
C                40.5788808547       62.2513677163      -13.3113992419
C                40.7610101782       61.3443664958      -14.5659643215
O                41.8921924743       60.8571678168      -14.6607633629
C                39.6589799790       61.7547053379      -12.1887252818
C                39.8332755160       62.6210523108      -10.9335635848
C                39.1940532024       62.0939312925       -9.5992982776
O                39.2042431328       62.9201913603       -8.6629732810
O                38.7417310585       60.9334342181       -9.5566264588
H                39.3584692383       63.9512675483      -13.2427671405
H                41.6076369939       62.2430012104      -12.9102085838
H                38.6219528004       61.7867520131      -12.5248110721
H                39.8969718038       60.7186876806      -11.9391574519
H                40.8964641310       62.7471627309      -10.7070067177
H                39.4011562670       63.6103696560      -11.0759700646
N                39.8465961442       61.0668040555      -15.5126014034
C                40.2661286144       60.1248380532      -16.5684372156
C                41.4478221441       60.6881948927      -17.4013494706
O                42.2728990056       59.8962507031      -17.8527151843
C                39.1303977312       59.5352019101      -17.4448725528
C                39.5864964424       58.4155784478      -18.4412781404
S                38.7805486837       56.7041711601      -18.3415187787
C                39.1449619496       55.9901012566      -19.9726366015
H                38.9118078812       61.4654533856      -15.4879119756
H                40.7202692395       59.2644137036      -16.0518014826
H                38.3771396701       59.1128794091      -16.7788372760
H                38.6751949260       60.3389920205      -18.0235392170
H                39.3694229963       58.7306743715      -19.4600709704
H                40.6546547254       58.2250356451      -18.3611010285
H                39.0843813653       54.9167553683      -19.8467287779
H                38.4193515471       56.3474559496      -20.6972600449
H                40.1586824413       56.2884267486      -20.2220250286
N                33.4795055439       62.1308375891      -26.1680105265
C                32.8232152746       62.3289509254      -24.8882995269
C                32.7907444920       63.8050688263      -24.4913510086
O                31.8608042602       64.1822360803      -23.7946700697
C                33.2898358691       61.3840069592      -23.7695603731
C                32.7558323973       61.7387387928      -22.3744017267
S                30.9262502372       61.9971006156      -22.0860402969
C                30.7907401999       61.2498036599      -20.4096947713
H                33.5435407386       62.9860295443      -26.7211361518
H                31.7561057444       62.0859900869      -25.0258852075
H                32.9928658273       60.3709159041      -24.0437943432
H                34.3810350219       61.4005423893      -23.7032757652
H                33.0319711013       60.9330926859      -21.6965754094
H                33.2297204622       62.6627832073      -22.0537731709
H                29.8020130144       61.5371573239      -20.0697263216
H                30.8741142423       60.1707096105      -20.4875345427
H                31.5653110222       61.6528627391      -19.7669924625
N                28.5182871045       64.0281632599      -24.1226783571
C                27.8115893658       64.7925159197      -23.1166917481
C                27.7246253471       66.2791039294      -23.4647366347
O                27.5431555274       67.1118650198      -22.5937278447
C                28.2974733759       64.5587216146      -21.6991126377
C                27.4704427626       63.4604563496      -20.9807109531
O                26.2758888872       63.2750548948      -21.2555477454
O                28.1161198660       62.8689248568      -20.0726010894
H                29.5080302302       64.2070798013      -24.2336208518
H                26.7675195095       64.4285562845      -23.1530538901
H                29.3490540526       64.2778662411      -21.7004106545
H                28.1559149641       65.4828109623      -21.1367879146
N                27.7581984983       66.5702358623      -24.7769463688
C                27.2706818603       67.8214671964      -25.3193904009
C                28.1918843897       69.0032471217      -25.0070728791
O                27.7610122594       70.1523577456      -24.9554486797
H                27.8121242761       65.8035021713      -25.4316771298
H                27.1548945104       67.7110834054      -26.3977477091
H                26.2944276043       68.0664023344      -24.8856173642
N                29.4620158283       68.6970740246      -24.7704359797
C                30.3385478275       69.6411389839      -24.1332077125
C                31.2803758679       70.3001834104      -25.1279013309
O                31.7191847242       69.7636405559      -26.1353149196
C                31.1431348331       68.9311325787      -23.0300857678
C                30.2326642265       68.2954860549      -21.9704106523
C                32.0769740868       69.8945907010      -22.3257158304
C                30.6745988668       66.9074841770      -21.5440763354
H                29.7652806717       67.7291599440      -24.7861053397
H                29.6954888880       70.4167632814      -23.6991663605
H                31.7233578154       68.1487653995      -23.5232680639
H                30.2507386211       68.9395306141      -21.0878504105
H                29.2064864697       68.2498156557      -22.3221303014
H                32.5897261856       69.3517076686      -21.5356063200
H                32.8370726031       70.3014561612      -22.9786847526
H                31.5065232625       70.7003076372      -21.8723161319
H                30.0271720007       66.5415460544      -20.7556987303
H                30.6428147338       66.2122414174      -22.3771837633
H                31.6964575692       66.9299021049      -21.1688020426
N                31.5804012751       71.5516651760      -24.7378996815
C                32.6360068586       72.3250864486      -25.3258972049
C                34.0035188648       72.0065651425      -24.7156056193
O                34.1746155156       71.6705934651      -23.5559646364
C                32.3567988140       73.8159317051      -25.1084197398
C                33.5091024645       74.7252088324      -25.6387842022
O                33.5984012123       74.9079322659      -26.8668531391
O                34.2523812791       75.2133559152      -24.7618372438
H                31.2697346684       71.8660201921      -23.8318026242
H                32.6555190348       72.1090802727      -26.3959634166
H                31.4451451405       74.0986102680      -25.6345886073
H                32.2652253277       74.0339123932      -24.0442689410
N                36.7080845102       76.7398724481      -23.4681786650
C                36.8694210923       77.1633289128      -22.0954069565
C                37.2036553326       75.9877662486      -21.1479060406
O                38.1503374239       76.0646018349      -20.3661631045
C                35.6622603469       77.9966513713      -21.5988229588
C                34.2547895947       77.3916600068      -21.7818654319
C                33.5455345591       76.8101121582      -20.4789303864
O                33.9752750711       77.1721670088      -19.3639208764
O                32.5699264307       76.0605049770      -20.6873501053
H                35.8380090194       76.3060128428      -23.7571951547
H                37.7620424127       77.8009482161      -22.0844198786
H                35.7936390819       78.1756420676      -20.5268468075
H                35.7038226249       78.9549354601      -22.1142688400
H                33.5698612361       78.1745684730      -22.1167833995
H                34.2185527871       76.6108172239      -22.5459341381
N                36.3911650094       74.9325786837      -21.2264973604
C                36.2567809643       73.8843818642      -20.2331824739
C                37.6271448405       73.5232801164      -19.6803321051
O                37.8684781443       73.4827954784      -18.4716827251
C                35.4177879557       72.7621512957      -20.8582257735
C                33.9338954005       72.8979695929      -20.4370128913
C                32.9512519400       73.1979973453      -21.5634432472
C                33.4994921375       71.6470724092      -19.6820469100
H                35.6054424197       75.0059653406      -21.8548555884
H                35.7066404939       74.3008348940      -19.3710543317
H                35.5182173697       72.8052698296      -21.9396639674
H                35.8030532412       71.7977295931      -20.5260851584
H                33.8559976772       73.7525340526      -19.7518963860
H                31.9783476217       73.3950266762      -21.1199569284
H                33.2498302292       74.0989392758      -22.0949902587
H                32.8957312059       72.3714816658      -22.2469718953
H                32.4705547355       71.7382635016      -19.3474056672
H                33.5916213378       70.7837748356      -20.3304885276
H                34.1337493022       71.5004646407      -18.8106814031
N                39.2587923421       74.7710524506      -16.2468087465
C                38.5466039481       74.4467720395      -15.0299212979
C                39.3615570383       73.6506724986      -14.0024279287
O                39.1268511116       73.6966744908      -12.8044219446
C                37.3809956463       73.5424088672      -15.4578137126
O                37.8653185171       72.3510916076      -16.0136092810
H                38.7994596600       74.4927121268      -17.1101909385
H                38.1713028883       75.3510668553      -14.5363393774
H                36.7859855657       73.2911991090      -14.5815609902
H                36.7612286672       74.0904483144      -16.1754786271
H                37.9914957976       72.4856916989      -16.9655674880
N                40.2924494043       72.8879457192      -14.5784373830
C                41.1210277476       71.9249603887      -13.8955417179
C                42.6314322755       72.2941877354      -13.9857892192
O                43.4727942926       71.6942498407      -13.3334039203
C                40.8873219352       70.5641647377      -14.5606753897
C                39.4474817509       70.0858890659      -14.4963026445
S                39.1630498821       68.6220464021      -15.5972998425
C                40.5824065958       68.5501572422      -16.7135673900
H                40.3049598137       72.8436081365      -15.5915854569
H                40.8401435361       71.9215318457      -12.8362971309
H                41.1575894235       70.7079745403      -15.6105633976
H                41.5710962424       69.8442796674      -14.1179835006
H                39.1541031513       69.7604598540      -13.5027357873
H                38.7624479020       70.8566348977      -14.8422804782
H                40.4554477645       67.6285028991      -17.2729489189
H                40.5896106349       69.3965974049      -17.3951928334
H                41.5063746149       68.5060083383      -16.1463738528
H                34.3170065232       61.8303213331      -26.0327992495
H                33.5139926898       64.4222031258      -24.8012821312
H                28.4545537436       63.1506776833      -23.9330547256
H                34.8284683266       72.0686221200      -25.2773950077
H                36.7934021569       77.4505259095      -24.0137907588
H                38.3771136309       73.3063713759      -20.3052300261
H                39.3762273202       75.6618958760      -16.2978677053
H                42.9298515264       73.0356855248      -14.5867276346
H                21.4116737337       69.5892499407      -13.4500447168
H                41.5238042216       61.6727518049      -17.5590657042
