 388 
 
N                41.2967298758       61.9523136849      -17.4988780352
C                42.5643711024       62.4314913157      -17.9958964750
C                43.7669883043       61.9802315920      -17.1706453937
O                44.6173631061       61.2659652943      -17.7115304729
C                42.7680213171       63.9395128135      -18.0344522696
C                42.1034876431       64.7219968812      -19.1647737625
C                42.9102149851       66.0046648805      -19.4086917140
C                41.9795833847       63.9156475770      -20.4458564949
H                40.8031655728       62.6116027865      -16.8964395969
H                42.7180718666       61.9756660073      -18.9804817541
H                42.4676218010       64.3512956551      -17.0717839441
H                43.8508282670       64.0794961148      -18.1220803477
H                41.0900104359       64.9965446752      -18.8436383861
H                42.4424673908       66.6101143349      -20.1797622356
H                42.9669683932       66.5851434676      -18.4895862936
H                43.9198889244       65.7637914126      -19.7156338838
H                41.5726780924       64.5372353813      -21.2404244462
H                42.9589709033       63.5602126997      -20.7545144193
H                41.3278461127       63.0580247614      -20.3193008990
N                48.0868938342       61.7916566104      -19.5511716034
C                47.6708118229       63.1315026838      -19.9196500736
C                47.5959165109       64.0755482984      -18.6937460796
O                46.6019208273       64.1152988760      -17.9857745367
C                46.2829276439       63.0774070419      -20.5783017184
C                46.2128882831       62.0886695437      -21.7520450838
C                45.8723300043       64.4791070731      -21.0149879649
C                44.8853979074       61.3421308687      -21.7727003084
H                47.6985829952       61.0353864272      -20.1218357879
H                48.4073806495       63.5246384237      -20.6296997985
H                45.5989515931       62.7355934369      -19.7899889389
H                46.3257728839       62.6263812808      -22.6893441821
H                47.0017933798       61.3429569356      -21.7021508893
H                44.9056379165       64.4542013863      -21.5128012276
H                45.7996993284       65.1380964834      -20.1554623955
H                46.6007480845       64.9073712784      -21.6804932490
H                44.9033140058       60.5349314149      -22.4990625618
H                44.6835584991       60.9121893565      -20.7949379595
H                44.0573539411       62.0045978652      -22.0188771979
N                48.6506152846       64.9215762257      -18.5400511225
C                48.5568112410       66.2019143291      -17.8238029192
C                47.6382993953       67.1609698162      -18.6154808110
O                47.3405674359       66.9547448002      -19.7913516781
C                49.9394477996       66.8571729666      -17.6921244403
C                49.9928389481       68.2051906731      -16.8476364607
O                50.0853583632       68.0836800523      -15.6104774736
O                49.9578214233       69.2659337714      -17.4912916303
H                49.3344810636       64.9325310203      -19.2829112685
H                48.1314107475       66.0086587766      -16.8354674672
H                50.6279375596       66.1596495584      -17.2130962510
H                50.3115031959       67.0966543942      -18.6941831275
N                47.2102735957       68.2618490943      -17.9916030870
C                46.3554644497       69.1817968412      -18.7411079342
C                46.9315528621       69.6402243981      -20.0999943777
O                46.5629439275       69.1745364492      -21.1646572997
C                46.0835768268       70.3326311540      -17.7385709511
C                47.0634301382       70.1047596600      -16.5799206664
C                47.1697345827       68.5878433039      -16.5699480866
H                45.4324661314       68.6433668132      -19.0026143562
H                46.2033102925       71.3203371982      -18.1745777056
H                45.0649961257       70.2349832937      -17.3604918004
H                48.0443818996       70.5276826504      -16.7925004418
H                46.7056225035       70.5022306495      -15.6341519460
H                48.0312763983       68.2232367253      -16.0300723930
H                46.2731609325       68.1287207733      -16.1287982776
N                47.7897628260       70.6768730728      -19.9921173953
C                47.7948311268       71.8657924761      -20.8419487482
C                47.6651499925       71.4698614074      -22.3279858501
O                46.6412390905       71.5465877072      -22.9919225902
C                49.0416227158       72.7338058978      -20.5444469445
C                49.2100470825       73.1927943166      -19.0790164261
O                48.6617847293       72.6566860968      -18.1296637574
N                50.0313156788       74.2440176148      -18.9279345424
H                48.1061855166       70.8956792496      -19.0503185668
H                46.9009872898       72.4661599908      -20.5998935725
H                49.9553384428       72.1794830965      -20.7654536124
H                49.0046185150       73.6171065583      -21.1825552591
H                50.2741287730       74.5170737536      -17.9869531999
H                50.5746123484       74.6190065128      -19.6872924543
N                48.8108158808       71.0680527940      -22.8692478694
C                48.9259286707       70.7440228378      -24.2738377499
C                47.7218369056       69.9519881775      -24.7269161974
O                47.1246377164       70.2042347601      -25.7645604201
C                50.1827179379       69.8739500549      -24.4354985776
C                50.5294115206       69.4035997335      -25.8455655555
C                51.5748682981       68.2048037974      -25.7773087635
O                51.1839625760       67.1747183172      -25.1928180486
O                52.6862666196       68.3849120133      -26.3102112690
H                49.6127487540       70.8816352063      -22.2861199762
H                48.9995987450       71.6612854393      -24.8706417082
H                51.0372983157       70.4332359598      -24.0451765808
H                50.0596980104       68.9794558924      -23.8149448415
H                49.6431034558       69.0176273565      -26.3523149455
H                50.9627530981       70.2069057529      -26.4399399713
N                47.4483133287       68.8836925263      -23.9917463349
C                46.5172950996       67.9059643560      -24.4838336851
C                45.2132807079       68.6044582741      -24.7111098600
O                44.4820591476       68.4339562034      -25.6820701948
C                46.4679233614       66.7802133464      -23.4712201603
C                47.7691035645       65.9701716060      -23.6317840711
C                48.6486137347       65.9491703365      -22.3785242509
C                47.4361589695       64.5763284755      -24.1613988184
H                47.8801561933       68.7174179130      -23.0964074184
H                46.8662687392       67.5269993418      -25.4564536585
H                46.3621049017       67.2006962611      -22.4717584853
H                45.5918761040       66.1642729634      -23.6757742798
H                48.3743063179       66.4596832507      -24.4031505771
H                48.7383840593       64.9442412423      -21.9791445552
H                49.6475905736       66.3104485730      -22.6256949069
H                48.2506604240       66.5790426329      -21.5912862935
H                48.2526648144       63.8836733742      -23.9930164191
H                46.5404390896       64.1925022699      -23.6876605785
H                47.2429457134       64.6238594330      -25.2313794840
N                44.9126605437       69.4425647992      -23.7443833636
C                43.7291865509       70.2243480176      -23.9275629095
C                43.8313637045       70.8026663559      -25.3437584647
O                43.0052665499       70.6195812156      -26.2251163609
C                43.6234949216       71.2456114514      -22.8072413165
C                44.0559098796       70.6909676645      -21.4372007461
C                43.5836046415       71.6292585660      -20.3294439600
C                43.5599820721       69.2814385761      -21.1454854447
H                45.5355886044       69.6174796887      -22.9710585408
H                42.8564031360       69.5562436874      -23.9286954050
H                44.2535999202       72.1061660880      -23.0337654299
H                42.5892986788       71.5888227117      -22.7511616956
H                45.1388993811       70.7029225644      -21.4133446634
H                44.0121048349       71.3349212591      -19.3762939767
H                43.8905682443       72.6524451658      -20.5384688674
H                42.5023025788       71.6117202011      -20.2338054825
H                43.7195980376       69.0549867997      -20.0955036624
H                42.4895850647       69.2182425698      -21.3376193168
H                44.0662019968       68.5242030467      -21.7313512459
N                44.9263913911       71.5408436142      -25.5359070621
C                45.1046529255       72.1831804397      -26.8139051283
C                44.9944574196       71.1913895228      -27.9647694473
O                44.5309400571       71.5337086198      -29.0462956759
C                46.4364938786       72.9288581208      -26.8906915232
C                46.4859998302       73.8565767523      -28.1112062532
O                46.4129360832       73.4607122849      -29.2620320535
N                46.6270550551       75.1604730151      -27.8092068091
H                45.6226612767       71.6444191437      -24.8098003787
H                44.2809207416       72.8992587487      -26.9607982263
H                46.5635694330       73.5034896853      -25.9731507232
H                47.2457418645       72.2023235358      -26.9785048401
H                46.7450667361       75.8188700381      -28.5642813733
H                46.8130411275       75.4723416619      -26.8706312967
N                45.4308053784       69.9545897682      -27.7386028327
C                45.4665721440       69.0350908307      -28.8448498384
C                44.1325682141       69.0838104588      -29.5668464369
O                44.0176938247       69.0318074837      -30.7876781261
C                45.6603203723       67.5856957722      -28.3795050098
O                44.5112454643       66.9971456817      -27.8652183475
H                45.9927798519       69.7731760962      -26.9155241383
H                46.2652721033       69.3099363467      -29.5491957962
H                45.9525301234       66.9954954045      -29.2535386135
H                46.4902050129       67.5698469069      -27.6557463623
H                44.3295917125       67.4165890147      -27.0005815910
N                43.1125308098       69.0506235347      -28.7101100626
C                41.7567060555       69.0905693502      -29.1602457634
C                41.2324635773       70.5479913087      -29.2297951274
O                40.1289984807       70.8340095642      -28.7987325491
C                40.8746169848       68.2050586348      -28.2806551051
C                40.5363799711       66.8783910507      -28.9345125381
S                39.3332270882       65.9175583241      -27.9706069373
C                38.0065976399       67.1444021186      -27.7380918768
H                43.2708192840       69.2735151849      -27.7344225215
H                41.7606733355       68.7275503633      -30.1986199044
H                41.3751489389       68.0420488834      -27.3247293991
H                39.9645585277       68.7779260742      -28.0972586050
H                40.1157892882       67.0339603840      -29.9285536904
H                41.4175911115       66.2418686706      -29.0114908608
H                37.2171027121       66.6548040356      -27.1793544121
H                38.3859901883       67.9693365264      -27.1434946129
H                37.6558653068       67.4937285639      -28.7017981140
N                42.0314105536       71.3951648361      -29.9100976636
C                41.7084603976       72.7918613864      -30.1630696227
C                42.2998835192       73.3039847953      -31.4933641201
O                42.2804313399       74.4959948021      -31.7695123881
C                42.1700461903       73.7194324680      -29.0350124212
H                43.0271980030       71.2039872660      -29.8942600584
H                40.6148851188       72.8507564695      -30.2437687764
H                41.8589749003       74.7350901989      -29.2563853266
H                41.7340510380       73.3894651799      -28.0950568185
H                43.2543823297       73.6799963265      -28.9662025318
N                42.7735261643       72.3554632164      -32.3216293517
C                43.4946749148       72.7138431940      -33.5265614885
C                43.4646220881       71.6924499203      -34.6858204976
O                43.4041058157       72.1108233515      -35.8397265395
C                44.9530823145       73.0252342089      -33.1668874614
H                42.8736329022       71.4198330706      -31.9568810859
H                43.0246720666       73.6268299611      -33.9092500864
H                45.4949908092       73.3419778728      -34.0524480349
H                44.9751759083       73.8171771711      -32.4223434736
H                45.4328951292       72.1452458428      -32.7432058009
N                43.6547628705       70.4015242032      -34.3943669026
C                43.7807085015       69.3790689784      -35.4221723305
C                42.4554473901       69.1835011680      -36.2659731433
O                42.6012354078       68.5657321750      -37.3343172117
C                44.1978762860       68.0579793533      -34.7928529671
O                41.4041727038       69.6256903875      -35.7835264739
H                43.6459499051       70.0803260753      -33.4371283432
H                44.5364320740       69.7188325591      -36.1424683881
H                44.1795387387       67.2891554023      -35.5605755669
H                45.1981511243       68.1279504017      -34.3709134549
H                43.4995593065       67.7861519342      -34.0035602226
N                48.4479773358       56.9015526129      -28.2871338800
C                48.1419841330       58.0955084059      -27.4994238801
C                46.9354733601       58.8078202743      -28.1133563170
O                45.9753698253       59.1521722046      -27.4300009133
C                49.3206943078       59.0347877630      -27.3179017537
C                49.2058857250       59.6984119565      -25.9549224380
C                50.5187628509       60.3872741557      -25.5992183091
N                50.5042176522       60.8856794074      -24.2277947920
C                50.5254352077       62.1581555085      -23.7952158290
N                50.7628528152       63.1908737659      -24.6046527429
N                50.2915581220       62.4398116233      -22.4979205952
H                49.3743340825       56.4823457159      -28.2002910685
H                47.8012044330       57.7483372413      -26.5129408780
H                50.2365047864       58.4371710314      -27.3428561005
H                49.3581458185       59.7647906317      -28.1265300628
H                48.3803181887       60.4114954029      -25.9565828620
H                48.9904066020       58.9388955311      -25.2017186850
H                51.3408775543       59.6711971800      -25.6865989194
H                50.7040670557       61.2062705577      -26.2923533421
H                50.2909283428       60.1761143965      -23.5388698686
H                50.8275216457       63.0881426019      -25.6050238086
H                50.7273335373       64.1418050728      -24.2686143373
H                50.1991342398       61.7016610681      -21.8191065835
H                50.4554032174       63.3773572902      -22.1685954639
N                42.7671618486       60.8390739130      -27.7212961359
C                42.2087146106       62.0518551025      -28.2756158004
C                40.9141147131       61.7854555504      -28.9974253324
O                40.0414658314       62.6352182611      -29.0569874396
C                43.1954085658       62.6914167518      -29.2215343111
C                44.2253818943       63.5200494316      -28.4490361918
C                44.6150938830       62.9608208593      -27.0701636865
C                45.4554158759       63.6910304552      -29.3453106466
H                43.7318276930       60.6074047381      -27.8996915720
H                41.9471331645       62.7511628747      -27.4685267001
H                43.6721049338       61.9068950672      -29.8004448778
H                42.6609052070       63.3411030494      -29.9152240960
H                43.8001708751       64.5133358990      -28.2694384137
H                45.3164010480       63.6567963927      -26.6156595793
H                43.7729394617       62.8645671368      -26.3949114631
H                45.1181754094       61.9977990478      -27.1515773234
H                46.1189643254       64.4431369775      -28.9241059336
H                46.0106408411       62.7616004006      -29.4228756254
H                45.1526617844       64.0235226063      -30.3335076777
N                38.2645979977       61.0547802943      -26.0768980767
C                37.9863729433       62.3378746479      -25.5047309149
C                37.2182896751       63.1978369469      -26.4816682942
O                36.1200436350       63.6331362194      -26.1055484133
C                39.2767909826       62.9124306756      -24.9352232454
C                39.6950505206       62.0679806496      -23.7338239263
C                39.2484144488       62.3725845288      -22.4490481104
C                40.5124561818       60.9352869012      -23.8453450918
C                39.6186757390       61.6326751906      -21.3322345109
C                40.9018765610       60.1878167971      -22.7413205381
C                40.4741736536       60.5385721675      -21.4596998268
O                40.8616264447       59.8683766648      -20.3433732272
H                39.1983984447       60.8946925046      -26.4306985373
H                37.2743653070       62.1736562334      -24.6792106091
H                40.0424145427       62.8818673879      -25.7096180651
H                39.1085840400       63.9424111722      -24.6261648082
H                38.5972354613       63.2231208704      -22.3033434783
H                40.8578793317       60.6331156358      -24.8113778888
H                39.2612080419       61.8966684414      -20.3484489416
H                41.5529811923       59.3327049007      -22.8347000321
H                41.4294991963       59.0949454765      -20.5808858992
N                37.6108772832       63.4449910439      -27.7123031468
C                36.6456553958       64.1482411417      -28.5518665866
C                35.2182520721       63.5914923662      -28.3798128839
O                34.2914875315       64.3767683971      -28.1862608694
C                37.0865219097       64.1145195529      -30.0140690829
C                36.3474200184       65.1418276211      -30.8832749520
C                36.6190008392       64.8736050846      -32.3810350119
N                36.0744158472       65.9543294548      -33.2220313632
C                36.0912678973       66.0590246490      -34.5552832721
N                36.6512022164       65.1123032241      -35.3094621268
N                35.5836904256       67.1580475961      -35.1412682983
H                38.4600067287       63.0896989221      -28.1495947726
H                36.5715711220       65.1805890613      -28.2040727688
H                38.1604876827       64.3068099996      -30.0328707357
H                36.9230962649       63.1076331588      -30.4045430077
H                35.2779294594       65.0689884037      -30.6848808273
H                36.6819475642       66.1443484927      -30.6180262645
H                37.6988363957       64.8002462700      -32.5352451730
H                36.1587603171       63.9165568883      -32.6439783857
H                35.5735384552       66.6662584625      -32.7083171338
H                36.9880373405       64.2640036568      -34.8830381242
H                36.6231948149       65.1577252355      -36.3154688995
H                35.0824566364       67.8460955730      -34.6016609164
H                35.5050471247       67.1975019538      -36.1416366107
N                33.7440120642       64.7893983655      -25.1018225807
C                33.3144173104       66.1588307970      -24.9909914228
C                31.9481997019       66.2484718804      -25.6230610998
O                30.9158911362       66.6258496973      -25.0782956058
C                34.1829603785       67.1294681665      -25.7523919329
C                35.2193609750       67.8091493191      -24.8601561203
C                35.1197126135       69.3074512172      -25.0512005842
C                35.1108077229       67.4846639251      -23.3818230604
H                34.5952452614       64.5279922167      -25.5793538821
H                33.1940830945       66.4018432372      -23.9346116305
H                34.6513140283       66.5970655436      -26.5798907846
H                33.5329504680       67.8992062595      -26.1731449397
H                36.2171526671       67.4828335323      -25.1766157752
H                35.7715571918       69.8180456184      -24.3505413037
H                35.4127725582       69.5511501048      -26.0635726908
H                34.1022285648       69.6445496797      -24.8913069446
H                35.9389043399       67.9578312281      -22.8563803579
H                34.1916305146       67.8697114057      -22.9551530828
H                35.1719987048       66.4150892331      -23.2033953977
N                34.8614848705       72.2124884883      -25.4928540550
C                36.2329341559       72.3832248224      -25.0695300919
C                36.6896185151       73.8238416184      -24.7578140039
O                37.3428065888       73.9637774436      -23.7302007074
C                37.0649486076       71.7752054214      -26.1956810127
C                36.1515057782       71.8058713089      -27.4241191024
C                34.7199699936       71.8775154486      -26.8956922711
H                36.3851832648       71.8579881781      -24.1186448407
H                37.9774229913       72.3402808044      -26.3804746924
H                37.3516565000       70.7561773259      -25.9456583079
H                36.3683368379       72.6955772080      -28.0148740161
H                36.3136939126       70.9408759172      -28.0631988264
H                34.1699130881       72.6711677017      -27.4106324732
H                34.1663312904       70.9428362946      -27.0087622405
N                38.7042204982       73.3639613944      -20.8558850763
C                40.1376282247       73.2863345717      -20.6924649922
C                40.5859772363       73.8270694068      -19.3105301461
O                41.1299589136       73.1233653053      -18.4719521331
C                40.8163006283       74.0211184354      -21.8633890026
C                40.1461651406       73.8295417904      -23.2469996745
C                41.0949635956       74.2874524241      -24.3598264929
C                39.7118183557       72.3971555833      -23.5526566681
H                38.3646038951       73.6261219892      -21.7722776669
H                40.4222716510       72.2241890606      -20.7114559189
H                40.8379935868       75.0946718415      -21.6679554915
H                41.8484313841       73.6709112675      -21.9159567248
H                39.2806263606       74.4877796364      -23.2986327814
H                40.5875731013       74.2310547903      -25.3197745520
H                41.4020594298       75.3163445425      -24.1989330255
H                41.9746403530       73.6471511146      -24.4009917605
H                39.3636408527       72.3381089645      -24.5792036781
H                40.5598730357       71.7198057208      -23.4569548208
H                38.9136191961       72.0401713545      -22.9115474821
N                40.5689567476       72.8312901512      -14.7766016101
C                41.3155955448       71.9304689417      -13.9149652966
C                42.8076969495       72.3144140107      -13.7582399393
O                43.5707591465       71.6712012549      -13.0489050742
C                41.1278836663       70.5227294443      -14.4883954684
C                39.6470158692       70.1661461296      -14.4831979936
S                39.1354974950       68.7618268342      -15.5584965741
C                40.4376556738       68.5758295542      -16.7990097441
H                40.4458106230       72.5555393676      -15.7437099715
H                40.8892421811       72.0007994469      -12.9037895629
H                41.5071255445       70.5474963788      -15.5136542233
H                41.7200787592       69.8190441823      -13.9082257798
H                39.3182245088       69.8928812400      -13.4828249241
H                39.0473478904       71.0021063510      -14.8309955261
H                40.1682901855       67.6881229169      -17.3645251014
H                40.4703826866       69.4384720728      -17.4576614217
H                41.3948100590       68.4138740536      -16.3140409045
N                43.1367794511       73.3990799995      -14.4804912971
C                44.3003557406       74.2370703051      -14.3195944355
C                44.1261344613       75.3218942305      -13.2281929853
O                45.1119800547       75.9415110513      -12.8518322756
C                44.5985002844       74.9311447793      -15.6488926241
H                42.3983842301       73.8576831641      -15.0076304211
H                45.1427813569       73.6112798726      -14.0065023992
H                45.4762224499       75.5597371620      -15.5439127569
H                44.7658943288       74.1904374163      -16.4256333462
H                43.7451930941       75.5465335426      -15.9236517940
H                47.8771925975       56.2416209214      -28.0664645682
H                46.9160140987       59.0035676073      -29.0938175956
H                42.7093870908       60.8646958249      -26.8235179924
H                40.7597782792       60.9007539052      -29.4372926582
H                38.1315393904       60.4147494062      -25.4583062328
H                35.0571116066       62.6056545715      -28.4262627802
H                33.8643281966       64.4447639654      -24.2791737137
H                31.8214295217       65.9849202288      -26.5793402684
H                34.4334364036       71.6723529701      -24.9140379080
H                36.4487499526       74.5700476369      -25.3784257291
H                38.3379242455       72.5607915007      -20.6805420492
H                40.4333629164       74.7870671348      -19.0757680719
H                39.7366816866       72.9375243688      -14.4509752691
H                43.2207657986       75.5046854291      -12.8449241993
H                40.7513407958       61.7715913936      -18.1916191158
H                43.8524351089       62.2632979639      -16.2153589064
H                48.9818992456       61.7256721214      -19.6190786045
