 539 
 
N                44.6320271470       46.4172566304       82.0015263163
C                45.1821715447       46.2450008470       83.3312901958
C                46.7090812701       46.4229675488       83.3237442103
O                47.3918320676       45.9816034938       82.4091760052
C                44.8687523322       44.8237539004       83.8296921593
C                43.3891594878       44.5800045417       83.9378529107
C                42.6732024859       43.9732887958       82.9147472177
C                42.7031061322       44.9548887588       85.0871412068
C                41.3111601723       43.7450541948       83.0265673967
C                41.3491796681       44.7198362458       85.2148974459
C                40.6350445567       44.1166552433       84.1807432433
O                39.2992121194       43.9066380457       84.3528548596
H                44.5638863361       45.5763108537       81.4452764984
H                44.7343556962       46.9883095604       83.9966658512
H                45.3223050945       44.1027639259       83.1452109746
H                45.3289927942       44.7089656944       84.8121618711
H                43.1898105916       43.6345847352       82.0303537954
H                43.2404473857       45.4371223163       85.8909942239
H                40.7659670524       43.2697585302       82.2243631066
H                40.8322813501       44.9951638233       86.1204330849
H                38.9105337600       43.4873793600       83.5726922444
N                47.2116244843       47.0999596616       84.3683701118
C                48.6327566223       47.0945652137       84.6257756710
C                49.0350333392       45.9612058682       85.5591111217
O                48.2630004865       45.2929978965       86.2303267379
C                49.1027653803       48.4526870675       85.1616800544
C                49.1934169678       49.4507483056       84.0068404419
C                49.7334801382       50.8122349261       84.4543637656
C                50.2269752370       51.6395263824       83.2723726503
N                49.1201399007       51.9019015942       82.3082550007
H                46.5872836080       47.2895068020       85.1516965381
H                49.1101919466       46.8877504336       83.6569447997
H                48.3926547814       48.7787368993       85.9253257725
H                50.0718720401       48.3440639464       85.6521944198
H                49.8591710836       49.0188911909       83.2550818195
H                48.1914288307       49.5322173300       83.5840911943
H                48.9673046054       51.3465913684       85.0154702673
H                50.5728972495       50.6504704926       85.1299437820
H                50.6210927234       52.5914200015       83.6273977402
H                51.0144756635       51.0938668347       82.7517159013
H                49.4510107785       52.4785828823       81.5213584555
H                48.7657657916       51.0068504142       81.9394152048
H                48.3453416772       52.3870686467       82.7845636411
N                50.3636847061       45.6865581826       85.5052068894
C                50.9447266703       44.7332814972       86.4345151870
C                50.6622863150       45.2531094278       87.8516333575
O                50.7968541475       46.4384736260       88.1133446155
C                52.4402277517       44.6369755048       86.1638527166
S                53.2494650553       43.4731194993       87.3498099070
H                50.9695600260       46.4449776127       85.2204094625
H                50.4569897734       43.7610334623       86.2968046112
H                52.6272156916       44.2609804095       85.1572247165
H                52.9014515987       45.6158233598       86.3066133371
N                50.2924739071       44.3401469834       88.7521073534
C                49.8971407575       44.7389285205       90.0763508578
C                48.3888062375       44.7994299741       90.2942889391
O                47.9265670706       44.6507214361       91.4164697665
H                50.0968428482       43.3797852649       88.4918346703
H                50.3232097782       44.0574591934       90.8143309532
H                50.2716138242       45.7541928928       90.2415588142
N                47.6365976903       45.0461862535       89.2211042027
C                46.2133766633       45.2539386378       89.3795746622
C                45.5636064532       44.0140462035       89.9880229584
O                45.8382378909       42.8748192881       89.6209211655
C                45.5524747884       45.5563769027       88.0455049341
C                45.8815633904       47.0038804962       87.5447961092
O                46.6798980347       47.6783579509       88.2115206717
O                45.2995399431       47.3444991413       86.4929328500
H                48.0363006542       45.2036808609       88.3072835788
H                46.0676036081       46.1118525581       90.0524992671
H                45.9100732682       44.8667055434       87.2785968445
H                44.4671914112       45.4577820012       88.1230076742
N                44.6503022757       44.2711678128       90.9249711813
C                43.8832007685       43.2476297921       91.5993191241
C                42.5357587598       43.0854085095       90.8795840898
O                41.9082610032       44.0623895389       90.4716871454
C                43.6728003598       43.6514571919       93.0591408949
C                44.9626913574       44.0160993065       93.8046768643
C                44.6247081181       44.2606393424       95.2722033621
C                45.9993881234       42.9106084027       93.6799603021
H                44.3894390738       45.2266648847       91.1142445013
H                44.4446863927       42.3142864608       91.5302776256
H                43.0014653332       44.5129630954       93.0859171312
H                43.1798675623       42.8205468792       93.5672708464
H                45.3837960085       44.9293016131       93.3730849356
H                45.4838777851       44.6571036811       95.8050200274
H                43.8110109959       44.9753218678       95.3649398886
H                44.3165529343       43.3285046000       95.7375235313
H                46.8018319751       43.0631835445       94.3962449255
H                45.5379732282       41.9449223772       93.8711622974
H                46.4465968727       42.9196533016       92.6901213914
N                42.1137800209       41.8321596006       90.7487439762
C                40.9236427676       41.4215716672       90.0396427920
C                40.2977533781       40.2325784268       90.7573571360
O                40.9121771281       39.5784188205       91.5893327819
C                41.2504217500       40.9652159079       88.5912969179
C                41.4445915703       42.1641499769       87.6731528727
C                42.4817775454       40.0645699364       88.5824008569
H                42.6426381150       41.0642241229       91.1643250774
H                40.2029797852       42.2395261525       89.9941454231
H                40.3912273877       40.3941891672       88.2243813269
H                41.7573320950       41.8370025149       86.6855449441
H                40.5111612516       42.7115931937       87.5692047660
H                42.2051387414       42.8368412867       88.0632292995
H                42.6145252779       39.6204332354       87.5994709819
H                43.3736970842       40.6389826304       88.8214308635
H                42.3750187300       39.2667067293       89.3137324302
N                42.5542717511       37.5654131502       92.7556341629
C                43.7486961043       37.3681565598       91.9598455809
C                44.3211025554       38.7286365307       91.5669029908
O                43.7406400176       39.7796792069       91.8114556158
C                43.4100970302       36.5381596060       90.7179208413
H                42.0082132508       38.3843383517       92.5065558913
H                44.5000404804       36.8343713136       92.5530431772
H                44.3141098980       36.2513404856       90.1949522711
H                42.8766577192       35.6389966743       91.0175329755
H                42.7661742095       37.1029537126       90.0478748356
N                45.4968949528       38.6806232582       90.9364183273
C                46.1600658577       39.8682587415       90.4428213842
C                46.8228717154       39.5704799924       89.1033564856
O                47.1706899024       38.4290453823       88.8056476638
C                47.2441996455       40.3672978437       91.4108940470
C                48.3036111359       39.2979208049       91.6175201418
C                49.4847488917       39.7772967491       92.4470261742
N                50.4050116192       38.6631474130       92.5729510473
C                51.3041241208       38.4905051310       93.5298715612
N                51.5659889526       39.4715848167       94.3894957860
N                52.0469080600       37.3875157287       93.5535881819
H                45.9775275504       37.7932139673       90.8329029422
H                45.4105005759       40.6543342080       90.3184737804
H                47.6856714218       41.2790557963       91.0055976367
H                46.7756778330       40.6031853744       92.3649404336
H                47.8468406182       38.4418618107       92.1202320121
H                48.6834245376       38.9701663385       90.6463436523
H                49.9786074093       40.6207085594       91.9537749442
H                49.1414658387       40.0898729276       93.4374415107
H                50.3038466397       37.9106386357       91.9051740168
H                50.8914298094       40.2130693703       94.5104789068
H                52.1522781436       39.2305561902       95.1782459804
H                51.8131132531       36.5969660163       92.9726373279
H                52.5683973947       37.2153319672       94.4060409452
N                46.9928392382       40.6212609206       88.2971698156
C                47.8751601169       40.5375739580       87.1479530219
C                49.2909016493       40.7042921303       87.6941717865
O                49.5631341259       41.6708525867       88.4059319263
C                47.5927769395       41.6187752502       86.0993899108
C                46.2522300080       41.4033699107       85.4003148987
C                48.7179323260       41.6013931555       85.0696599105
C                45.0601779952       41.7738566445       86.2645678434
H                46.7537935793       41.5493594028       88.6379287940
H                47.7842627993       39.5428761671       86.7005659518
H                47.5929434393       42.5960647700       86.5983513114
H                46.2353167289       42.0203543113       84.4994338614
H                46.1812135694       40.3586528155       85.0897004166
H                48.5429258478       42.3556551590       84.3053422367
H                49.6858957937       41.8060321840       85.5263898209
H                48.7927721431       40.6258810805       84.5921045113
H                44.1541943037       41.7674117388       85.6663458046
H                44.9442580025       41.0819551461       87.0913449124
H                45.1849380687       42.7735068645       86.6742521684
N                50.1759437476       39.7449472687       87.4232745847
C                51.5368079956       39.8471005875       87.8884218904
C                52.5682924182       39.9635706951       86.7648377785
O                53.7294525587       40.2247505723       87.0499109140
C                51.9237776873       38.7240640241       88.8394641313
C                51.8372129187       37.3407324878       88.1175848436
O                51.7143136297       37.3701919393       86.8764142603
O                51.8824922353       36.3454685522       88.8633984990
H                49.9358732559       38.9367927524       86.8624974385
H                51.6031666569       40.8047670067       88.4280143086
H                52.9608196065       38.8585593866       89.1487691096
H                51.2811111438       38.7113210301       89.7191829095
N                52.0882273793       39.9991636548       85.5057393486
C                52.9430732390       40.2980322696       84.3729348325
C                52.0592833994       40.9652052032       83.3253997724
O                50.9849679459       40.4613282853       83.0219002675
C                53.5757891805       39.0557881925       83.7319217010
C                54.3283940470       38.2064366549       84.7421698121
C                55.1218218290       37.0324630157       84.0906235917
O                56.0776165699       36.5872041839       84.7584487919
O                54.7464691684       36.6364772680       82.9693203999
H                51.2558399578       39.4669994148       85.2969366305
H                53.7338108846       40.9576659469       84.7455793679
H                52.7977677744       38.4449134802       83.2671410370
H                54.2586757405       39.3694052773       82.9378322111
H                55.0350473832       38.8041075814       85.3220081337
H                53.6362166933       37.7380297063       85.4503227312
N                52.4832655088       42.1399555550       82.8122039606
C                51.7324255249       42.7230208019       81.7037188747
C                52.0636898257       41.9586831139       80.4141829823
O                53.1730701283       41.4526283572       80.2658041150
C                52.0255149956       44.2144314262       81.5093167493
C                51.0248146547       45.0799180431       82.2648431574
S                51.2807406773       46.8561042190       82.0085895786
C                52.8162846671       47.1691587983       82.9406001046
H                53.4700660311       42.3495791824       82.8609473192
H                50.6814715479       42.5616623490       81.9597350698
H                53.0433882583       44.4140729336       81.8511805160
H                51.9869510230       44.4526399199       80.4431029380
H                50.0075868527       44.9015298049       81.9127776295
H                51.0578181826       44.8763548782       83.3359042575
H                53.0089924845       48.2320049061       82.8560911767
H                52.6763410917       46.8822965945       83.9791561257
H                53.6341994779       46.6119402654       82.4963993818
N                51.0927516448       41.8920267855       79.5003163693
C                51.3113617517       41.2751984142       78.2062466618
C                52.0007609740       42.2753111652       77.2639500464
O                52.2083028182       43.4338236149       77.5724440560
C                49.9020547336       40.9459717203       77.7205340803
C                49.0961544015       42.1261930319       78.2618394402
C                49.7409494527       42.4179585629       79.6192951021
H                51.9690314786       40.4077216591       78.3242182055
H                49.8615077118       40.8851878461       76.6365823556
H                49.5579664555       40.0088276426       78.1575339866
H                49.2150386659       42.9871174715       77.6034352517
H                48.0395197961       41.8943666757       78.3662463659
H                49.7514415890       43.4869920991       79.8328596769
H                49.2175214254       41.8869131648       80.4197451971
N                46.5620126615       38.1431968612       80.0826655209
C                47.4073756918       38.6261993427       81.1506521906
C                47.8192123033       37.4155501080       81.9906736620
O                47.0337624287       36.4855152098       82.1090724082
C                46.6069305721       39.5937901407       82.0421148168
C                46.0881269398       40.7947424989       81.2969511710
C                44.9593708379       40.7068936376       80.4885070531
C                46.7061856350       42.0319403688       81.4358812813
C                44.4686973719       41.8252258103       79.8391906594
C                46.2198917829       43.1627822579       80.8023939895
C                45.0907707424       43.0581709642       79.9995330367
O                44.5959697382       44.1901130936       79.3993039896
H                45.6819046194       37.7194146599       80.3601987773
H                48.2773798010       39.1157158654       80.7059391325
H                45.7650316184       39.0373706633       82.4627854653
H                47.2450018070       39.9131990785       82.8673960363
H                44.4472348039       39.7640149524       80.3818685438
H                47.5698483783       42.1265608715       82.0775477768
H                43.5873594872       41.7439079064       79.2197642366
H                46.7061495990       44.1159377473       80.9433538455
H                43.9671940161       43.9283826563       78.7086923305
N                49.0576905626       37.3972077813       82.5256988860
C                49.3502346074       36.3427016893       83.4835221691
C                48.7642037639       36.7535510531       84.8460676235
O                48.9575628940       37.8715927365       85.3268426522
C                50.8322071074       36.0052529083       83.6165769519
C                50.9735006569       34.8149233009       84.5617590327
C                52.3662244468       34.2138843179       84.5791392162
O                53.0630894373       34.1699198364       85.5837579557
N                52.7069385367       33.6068898255       83.4295018335
H                49.6148533070       38.2384037271       82.5769116029
H                48.8117596792       35.4566593584       83.1292582094
H                51.2613933551       35.7825853740       82.6386508786
H                51.3808852011       36.8512666385       84.0377475908
H                50.7531863269       35.1363286236       85.5821018527
H                50.2749480053       34.0242864025       84.2753778025
H                52.1759884588       33.7514349328       82.5808118294
H                53.6597127481       33.3037131071       83.3098125077
N                47.9459418465       35.8507173312       85.3764047340
C                47.2250301000       36.0451803586       86.6101476746
C                47.8153214249       35.1371389336       87.6868064675
O                48.1523003132       33.9882765004       87.4201394575
C                45.7496743885       35.6797414821       86.3690161868
C                44.9571893724       35.7830565493       87.6630457556
C                45.1587224192       36.5913288665       85.3006273039
H                47.8764382869       34.9239692888       84.9678596340
H                47.3250025038       37.0899567078       86.9142505458
H                45.7263736023       34.6437913865       86.0133239867
H                43.9005059602       35.6111423098       87.4752762381
H                45.2968964845       35.0405815699       88.3818163165
H                45.0818470291       36.7754780679       88.0906865874
H                44.1256562393       36.3114387086       85.1114812912
H                45.1828563759       37.6251241683       85.6400376529
H                45.7249119329       36.5141442841       84.3756702697
N                47.8821580110       35.6685439162       88.9102124217
C                48.2854623017       34.9443248334       90.0937130772
C                47.0827047731       34.9251286443       91.0296425733
O                46.5474866425       35.9822230976       91.3584500665
C                49.4230776816       35.6935050621       90.7920386320
C                49.8057000249       35.0826878616       92.1099720775
C                50.7841876274       34.0973273077       92.1740143337
C                49.2264382287       35.5327403113       93.2933861599
C                51.2069462608       33.6019517960       93.3942695924
C                49.6544252103       35.0462581755       94.5152925956
C                50.6555255499       34.0910529092       94.5675376955
H                47.5873996125       36.6283970938       89.0493198542
H                48.5784751968       33.9323646987       89.8084379757
H                50.2836252198       35.7327758916       90.1188602455
H                49.0444312822       36.7050548743       90.9527837208
H                51.2372239380       33.7428637524       91.2609985436
H                48.4413509369       36.2753407046       93.2657155861
H                51.9913719206       32.8622497780       93.4371012937
H                49.2080413545       35.4219961132       95.4257707233
H                51.0068995972       33.7241740446       95.5201179338
N                45.2408294119       34.3971719016       94.4713618803
C                45.5372342292       34.4282926422       95.8844517500
C                45.0484598026       33.1409380153       96.5400560265
O                44.1595273402       32.4498005018       96.0438997126
C                44.9059775765       35.6504254150       96.5361919768
C                45.5518958741       36.9205919494       96.0627932734
C                46.8209954822       37.2575163889       96.5163127269
C                44.8893693256       37.7918337212       95.2104084932
C                47.3975611956       38.4561381025       96.1388088226
C                45.4664231064       38.9894428580       94.8257895345
C                46.7204724182       39.3274495311       95.2991739408
H                44.4046972589       34.8793700355       94.1459932970
H                46.6260656702       34.4708990418       96.0087710248
H                43.8354261106       35.6597457880       96.3234100572
H                45.0584980241       35.5730384496       97.6129510177
H                47.3352202494       36.5921579670       97.1954864242
H                43.8975771236       37.5436261535       94.8693039478
H                48.3726645189       38.7331565249       96.5152140332
H                44.9210935012       39.6538742776       94.1733771730
H                47.1852819505       40.2675879464       95.0470466716
N                48.9467911390       30.1337994926       88.9243138752
C                48.8742527999       31.1034270488       87.8607558390
C                48.1627499927       30.4868549865       86.6607823547
O                48.1038806332       29.2766859270       86.4881966172
C                50.2371034520       31.6638420838       87.3926405272
O                50.8680613609       30.7059996520       86.5690984447
C                51.1040077910       32.0838307931       88.5718102044
H                49.1423124557       29.1754882547       88.6595886324
H                48.2997775402       31.9554245810       88.2337545506
H                50.0089100966       32.5602851192       86.7927164851
H                51.7807672731       30.9936811365       86.4347177411
H                52.0268377185       32.5360452047       88.2134502452
H                50.5737414165       32.8297506680       89.1558028493
H                51.3208015440       31.2282852507       89.2069503475
N                47.6245358420       31.3876870308       85.8348255429
C                46.9927614291       31.0426196375       84.5771003038
C                47.0521882420       32.2731465392       83.6732176839
O                47.5045427623       33.3400699637       84.0710710805
C                45.5392357091       30.5944190986       84.7713995876
H                47.7392944772       32.3784696028       86.0346244638
H                47.5633269459       30.2174851196       84.1308883482
H                45.1346661137       30.1562280802       83.8633159625
H                45.4984816444       29.8303222100       85.5451648219
H                44.9101361793       31.4288823458       85.0696858091
N                46.5647690873       32.1063512237       82.4439808274
C                46.4661586152       33.1748872657       81.4720907777
C                44.9974964944       33.3285778656       81.0687248039
O                44.3811730716       32.4019458962       80.5697131547
C                47.2501346662       32.8184659522       80.1997078997
C                48.7299614635       32.9489903480       80.3952876178
C                49.3190276546       34.2027416898       80.2995098181
C                49.5240154787       31.8380541277       80.6527792481
C                50.6902426762       34.3372319032       80.4072147917
C                50.8944882555       31.9758495726       80.7800530356
C                51.4839550830       33.2218559929       80.6300923250
H                46.1961683973       31.2099402000       82.1581670364
H                46.8502669281       34.0869113406       81.9354777272
H                46.9825196514       31.7999856741       79.9165858140
H                46.9383357919       33.5119846501       79.4194567161
H                48.7077983952       35.0754541602       80.1260678947
H                49.0748433557       30.8606664902       80.7534294824
H                51.1483545414       35.3086774940       80.2878564732
H                51.5140699890       31.1181932738       80.9914429031
H                52.5607222301       33.3007013813       80.6240113020
N                38.1759318397       38.8115640152       83.7194689520
C                38.7346643684       39.6704102101       84.7335473909
C                37.7452363772       40.7797185288       85.0938096489
O                37.1801665381       41.4500523629       84.2441165753
C                40.0041244787       40.3589932260       84.2123431756
C                41.2877964764       39.5565194813       84.4191494928
C                41.1917548271       38.1548678314       83.8290736457
C                42.4590531845       40.3074914301       83.7912714115
H                37.9680889085       39.2604649705       82.8330112459
H                38.9390545913       39.0630302835       85.6197867737
H                39.8492301762       40.5604462372       83.1504229031
H                40.1076772257       41.3192306456       84.7229161775
H                41.4565110381       39.4700944852       85.4989864175
H                42.1578516493       37.6638805105       83.9155860607
H                40.4585384567       37.5522929878       84.3580018783
H                40.9103755019       38.1936049558       82.7790862142
H                43.4012060576       39.8351562694       84.0557591608
H                42.3644108461       40.3059632134       82.7085323622
H                42.4816088237       41.3415385002       84.1284306539
N                37.7432678185       44.0780138767       87.8318281236
C                38.5570592781       44.8389991218       88.7842014651
C                38.1215823971       44.5493145656       90.2173848106
O                36.9459939604       44.6406803677       90.5695635912
C                38.3288151992       46.2956843020       88.3844864671
C                38.0365259724       46.2034550153       86.8885301061
C                37.2189634149       44.9199714821       86.7694722638
H                39.6097544857       44.5515805590       88.6702746202
H                37.4506775132       46.6781858086       88.9076219629
H                39.1887598210       46.9192720805       88.6137857860
H                37.4867785563       47.0676592700       86.5265452521
H                38.9618644535       46.1062843608       86.3236117884
H                36.1548764272       45.1151957078       86.9423403198
H                37.3624146631       44.4485545068       85.7969968029
N                39.1041154631       44.2454219590       91.0719007080
C                38.7749831867       43.7091387028       92.3820982132
C                37.9134811490       44.6808076970       93.1824116475
O                36.8977324145       44.3264458225       93.7521416671
C                40.0443512266       43.3872695780       93.1806018531
C                39.7906695509       43.3597489281       94.6649897995
C                39.2303726544       42.2532836340       95.2903390854
C                40.1275686757       44.4548824070       95.4460654986
C                39.0001459847       42.2437673575       96.6523653623
C                39.9074269064       44.4578607040       96.8083960853
C                39.3336240029       43.3525725660       97.4258975940
O                39.0851933468       43.3278372633       98.7591602044
H                40.0832043018       44.1968369171       90.7655381311
H                38.1668339585       42.8034922209       92.2553366903
H                40.4384919870       42.4253805578       92.8477512255
H                40.7866607730       44.1563031699       92.9611096304
H                38.9747925356       41.3866331680       94.6995942907
H                40.5761821213       45.3312357446       94.9997736415
H                38.5663529180       41.3828923274       97.1344891684
H                40.1609253135       45.3424032093       97.3760003143
H                39.4041576101       44.1467273314       99.1634017791
N                44.4359744173       40.4430781209      100.8913399791
C                44.4122982023       41.8358353145      100.4792878308
C                43.8654818418       42.7053935907      101.6348159516
O                42.7064707549       43.1069342949      101.6183179673
C                43.5298002536       42.0485125670       99.2274737903
C                43.8134331358       41.0465447943       98.0988988527
C                43.7010460281       43.4845693719       98.7325056459
C                42.9565363564       39.7933324129       98.1736219351
H                43.7674421900       40.1638680361      101.5914808432
H                45.4478893789       42.1302451314      100.2645219295
H                42.4936271129       41.9176694817       99.5588334411
H                43.6013780511       41.5392489137       97.1480469544
H                44.8664621069       40.7666520818       98.1017471127
H                42.9754493230       43.6895678646       97.9500897585
H                43.5323368085       44.1803317992       99.5494108225
H                44.6985855433       43.6423879399       98.3379738055
H                43.2032613377       39.1226527492       97.3528832397
H                43.1111684556       39.2422357461       99.0971842192
H                41.9008758906       40.0526236367       98.1202631459
N                48.6485305137       42.1310278619       99.6159682815
C                48.3417864409       41.9215290797       98.2243224520
C                49.5648500201       41.6612233796       97.3471034347
O                49.4127997288       41.0632197154       96.2799098682
C                47.4645909191       43.0413528440       97.6696059271
C                48.1909651215       44.3721350751       97.6811350616
O                48.6237018611       44.8584502423       98.7166841999
N                48.3020186285       44.9863598390       96.4927783230
H                48.3878700783       43.0029300936      100.0704226011
H                47.7643927897       40.9838635979       98.1615075809
H                47.1262238273       42.7668498271       96.6719317825
H                46.6041579792       43.1311864468       98.3344956914
H                48.8042772175       45.8599006155       96.4512330272
H                47.9998999425       44.5570037961       95.6338663807
N                54.4874344450       48.0674062044       89.6597914830
C                55.0224752893       47.0875707600       88.7304831854
C                54.7135112735       47.5920852481       87.3133650149
O                53.6196718488       48.0682281857       87.0516537569
C                54.3581281845       45.7442758360       89.0011456558
S                54.9614383998       44.4615277706       87.8151884654
H                53.5276862919       47.9219125009       89.9445889099
H                56.1083352348       47.0238392856       88.8681937611
H                54.5902555188       45.3943419822       90.0077736559
H                53.2798091522       45.8342681952       88.8583850353
N                55.6890661469       47.4558709658       86.4128910190
C                55.5413777800       47.9976302848       85.0886475146
C                56.2431492442       49.3341370234       84.8707094333
O                56.6030541994       49.6600936156       83.7485286059
H                56.6185793214       47.1451115733       86.6731637021
H                55.9185130189       47.2879090256       84.3506674192
H                54.4748965088       48.1809592822       84.9234395582
N                56.4990920163       44.4584940701       92.3527944118
C                56.3695626924       45.4002731938       93.4612794977
C                56.8658663968       44.7312210499       94.7508153901
O                56.7494325205       43.5174421471       94.8991942574
C                54.9314184689       45.8921555787       93.6556816231
C                54.6822352425       47.1915308040       92.9001552150
S                53.0160498810       47.8579854549       93.1564087938
C                51.9771646676       46.6846926407       92.2243982678
H                55.8241523686       43.7087115630       92.3040510532
H                57.0347802002       46.2297468096       93.2052633026
H                54.2495872204       45.1104722291       93.3138178564
H                54.7444058482       46.0446572056       94.7218954344
H                55.3453378894       47.9832818029       93.2522207429
H                54.8420243505       47.0611673279       91.8290941149
H                50.9603590293       47.0492258292       92.3089071957
H                52.2955664112       46.6624562302       91.1858422467
H                52.0507726672       45.6977483700       92.6685989906
N                57.4237715614       45.8923768624       77.4254510606
C                57.2005667300       44.6819408732       78.1926780656
C                58.0058022661       43.4919137228       77.6601223839
O                57.6269123768       42.3526298549       77.8978788947
C                55.6888597101       44.4211011061       78.1579375409
C                55.1370035532       45.5010824726       77.2231240586
C                56.3604368137       45.9958152186       76.4425732122
H                57.5482260962       44.8550660166       79.2141677879
H                55.4944239333       43.4178839085       77.7805844689
H                55.2505335895       44.4889213809       79.1504097867
H                54.3663533046       45.1303472466       76.5536013267
H                54.7177865521       46.3283835657       77.7950610111
H                56.5750561393       45.3450021736       75.5886133035
H                56.2210592243       47.0095767159       76.0794726445
N                56.6735283099       30.2940775486       78.4955635420
C                55.6279936021       31.2704290697       78.3012132845
C                55.0581311676       31.5382686621       79.7390137957
O                55.3209649547       30.6671203933       80.5927822633
C                54.4734681029       30.8789808871       77.3711455773
C                53.7860676084       32.1535911415       76.8774106260
C                52.3910865311       31.8962279043       76.3185251952
C                51.3890836221       31.7600861646       77.4558496555
N                50.0285582132       31.4949823705       76.9141135673
O                54.4122265495       32.5839343229       79.8890301053
H                56.6753898830       29.9663840050       79.4631960776
H                56.0990483831       32.1843321099       77.9148647996
H                54.8638236341       30.2973831942       76.5317619343
H                53.7795928471       30.2386168606       77.9183700686
H                53.7219696113       32.8449850344       77.7189726661
H                54.4244268973       32.6058292644       76.1170052903
H                52.1149339372       32.7301203036       75.6733923202
H                52.4180085677       30.9745768616       75.7376027415
H                51.6770505526       30.9267141995       78.0950282456
H                51.3722962705       32.6681803256       78.0582776629
H                49.3551824200       31.4109955269       77.6886213237
H                49.7452964082       32.2545547530       76.2775751661
H                50.0558210635       30.5988070983       76.4029361847
H                57.7590842897       46.5313990009       77.9632391981
H                58.8342735341       43.6491955519       77.1226302591
H                56.5357253132       29.5932801976       77.9479382989
H                43.7974631155       46.7486349361       82.0622823513
H                39.3559892372       39.9648792651       90.5538443312
H                42.0112022379       36.8536137974       92.6638889440
H                52.2988951206       41.9824250983       76.3554712176
H                46.3456998958       38.8265029027       79.5383295576
H                46.7312075247       34.0546968059       91.3743135744
H                45.9189009335       34.7725168812       94.0138302880
H                45.4527555244       32.8338368943       97.4015859859
H                49.6012009382       30.3648225424       89.4973550301
H                44.5278276224       34.1995292298       81.2131369636
H                38.7539330994       38.1461306805       83.5374991172
H                37.5421948288       40.9764948828       86.0530036836
H                38.2747832647       43.5360291747       87.3483574283
H                38.1773043622       45.6429157757       93.2512981986
H                44.2758783808       39.9163683363      100.1793385311
H                44.4579709931       42.9448722325      102.4039756137
H                48.2423422222       41.4990626216      100.1115800317
H                50.4675823016       41.9742376960       97.6422245381
H                54.9778961228       48.0648944061       90.4144046510
H                56.4089951805       49.9440136065       85.6456582566
H                56.4240172877       44.9007122507       91.5725336439
H                57.2846606339       45.2836707763       95.4715169142
