 437 
 
N                40.2294401324       20.5109331121       89.6879619721
C                39.4840725116       19.9523875214       88.5034275917
C                38.4934261935       20.9781562039       87.8367651055
O                37.2971576289       20.8882801645       88.0240984345
C                38.6402139591       18.7394469532       88.9453453015
C                38.5873652561       17.6949570522       87.8478422349
C                38.1486176452       18.0157851311       86.5714810463
C                39.0576249037       16.4052718599       88.0927178715
C                38.2408398099       17.0646010278       85.5746247566
C                39.1530283989       15.4484775929       87.0969896642
C                38.7537104634       15.7999864903       85.8298169076
H                40.8476330909       19.7938333182       90.0957901900
H                40.7935092488       21.3318357493       89.4125613115
H                39.5513156873       20.8004280025       90.4151605313
H                40.2086113131       19.6533195005       87.7410658305
H                39.0387359775       18.2784503925       89.8468455551
H                37.6220396345       19.0790567739       89.1524688274
H                37.7546594055       18.9923492362       86.3489542837
H                39.3329748207       16.1199832889       89.0994167419
H                37.9548363574       17.3002845479       84.5594795496
H                39.5147002469       14.4538989540       87.3132065100
H                38.8346752044       15.0964428051       85.0191224408
N                39.1124294206       21.9260585920       87.1154694042
C                38.4264118994       23.0692479737       86.4963782921
C                37.0771435765       22.7758587415       85.8102173949
O                37.0046317229       22.1882848322       84.7305592252
C                39.2463492339       23.7442600068       85.3640766003
C                38.7341874977       25.1764179720       85.2709934994
C                40.7549510852       23.7537019684       85.5604425857
H                39.9834277005       21.6829184278       86.6474962339
H                38.2473990462       23.7871737057       87.3036018678
H                39.0313452031       23.2171216714       84.4327406931
H                39.2116182204       25.6726068083       84.4305495084
H                37.6592075891       25.2153923122       85.1086271170
H                38.9647290609       25.7188261098       86.1826775041
H                41.1911487866       24.4253047281       84.8277456187
H                40.9988659360       24.0972522234       86.5595781646
H                41.1851058758       22.7750683264       85.3800428307
N                36.0167674457       23.3191893501       86.4161081471
C                34.7267140593       23.3769386022       85.7507961214
C                34.8279883196       24.3638525421       84.5889255327
O                35.3504991141       25.4574342731       84.7534305677
C                33.6384129373       23.8558652446       86.7041219461
C                33.1207282020       22.7013277148       87.5558537245
S                32.1778194203       21.5242094068       86.5593064676
C                30.8887495172       22.6512008074       85.9194821119
H                36.1169077272       23.8377477133       87.2748157285
H                34.4760029204       22.3790024116       85.3735487539
H                34.0416309119       24.6388140811       87.3505584813
H                32.8204431601       24.3052388504       86.1421630812
H                33.9354520627       22.1251152942       87.9923781021
H                32.4681396814       23.0621591724       88.3519079433
H                30.0430767465       22.0258081367       85.6596329672
H                30.5975025030       23.3301569333       86.7126536805
H                31.2476345065       23.2129889460       85.0665174943
N                34.3095963073       23.9610589453       83.4322478277
C                34.4377564821       24.7928085742       82.2605450232
C                33.2092573957       25.6581314767       82.0130646619
O                32.1287666651       25.3502300707       82.4755592343
C                34.5730761906       23.8315525577       81.0785489680
C                35.4254459329       24.4330976569       79.9648466933
C                33.1604727349       23.3538438812       80.7174301501
C                36.8185707342       24.7530945531       80.5063195477
H                33.9548031124       23.0240839512       83.3061608413
H                35.3103165353       25.4297536619       82.4177869370
H                35.1292829254       22.9659597483       81.4532270911
H                35.5109746936       23.7042513891       79.1558760291
H                34.9550488893       25.3180497461       79.5354779629
H                33.1417107572       22.2805354215       80.6058241758
H                32.4624915044       23.5863360919       81.5119506767
H                32.7973917022       23.8588539533       79.8312857527
H                37.5183403224       24.8951728528       79.6838893607
H                36.8287070014       25.6577206880       81.1058782834
H                37.1715453777       23.9245348617       81.1143058809
N                33.3770375185       26.7425406797       81.2212254041
C                32.2158417446       27.4229902727       80.6811780854
C                31.4156455622       26.5659594969       79.6651228334
O                31.3025874638       25.3566188967       79.7443459879
H                34.2569086642       26.8700426926       80.7481881769
H                31.5373335026       27.6165832834       81.5185573857
H                32.5353007334       28.3612714806       80.2325671129
N                30.8198452135       27.2974936833       78.7147054770
C                30.0297970762       26.8234400089       77.5907241176
C                29.6418449011       28.1322794164       76.8805420442
O                29.9089477357       29.2067428073       77.4195905967
C                28.8351749774       25.9141411227       77.9893474937
O                28.5693830830       24.9097655501       77.0383668251
H                30.8805586224       28.3161760007       78.7233773748
H                30.6675633986       26.2426937606       76.9091288046
H                29.0678262194       25.4752681161       78.9637533883
H                27.9234967126       26.5068166870       78.0897426862
H                29.1503599265       24.1556212597       77.1821019745
N                28.3531509986       27.5307988274       84.9255008017
C                29.2026912794       26.5198709143       84.3544396447
C                28.7271175397       25.0749288339       84.5020948801
O                29.3621147974       24.1704406369       83.9792956386
C                30.6700411071       26.5930839445       84.9120779572
O                30.8968882548       25.7372725650       86.0268042784
C                31.0801842194       28.0441147613       85.1588137465
H                28.1361888234       27.4586902031       85.9090771658
H                29.2585597849       26.7359937033       83.2831558958
H                31.2996469788       26.1586058152       84.1294618647
H                30.6279414653       26.1968998917       86.8329891096
H                32.1446053845       28.0882358860       85.3762347735
H                30.8771102707       28.6473984653       84.2812314700
H                30.5380035908       28.4779506277       85.9956082728
N                27.6530476204       24.8012517059       85.2500167909
C                27.1487980417       23.4432103412       85.2652711767
C                25.9420758412       23.3156230632       84.3495173638
O                25.7226732540       22.3145423843       83.6827868013
C                26.7818328911       22.9737949499       86.6810075572
C                26.2275022559       21.5679644537       86.7072668109
C                26.9338312092       20.4951152517       86.1726993478
C                24.9931147821       21.3107174442       87.2900465038
C                26.4019137698       19.2136697244       86.1810514613
C                24.4756423863       20.0249010449       87.3357733824
C                25.1678723288       18.9708284332       86.7654424015
H                27.0715231264       25.5125549208       85.6767501476
H                27.9453692114       22.8094770953       84.8690451944
H                27.6844050082       23.0215189093       87.2962482444
H                26.0542889861       23.6674282636       87.1090401130
H                27.9120751444       20.6571817633       85.7492435902
H                24.4274098238       22.1243078786       87.7243350919
H                26.9506212503       18.3975708710       85.7332645695
H                23.5207558569       19.8502013326       87.8103500801
H                24.7531054681       17.9754752081       86.7954227159
N                40.0530869674        8.6068006626       89.6166360042
C                39.7418792614       10.0298445000       89.5868893666
C                38.6712711761       10.3310309819       88.5404074356
O                37.7624270393       11.1168769926       88.7664782508
C                41.0287827364       10.8153889945       89.3699375211
C                40.9570459203       12.2252311104       89.9263692274
C                42.3831691440       12.8126098462       90.1835088749
O                42.3948674518       13.9342499283       90.7479713180
O                43.3752101194       12.1692858703       89.8270057840
H                41.0262189182        8.3641128222       89.7848602549
H                39.3031370471       10.3053615543       90.5590097522
H                41.8310879390       10.2898975463       89.8966133745
H                41.2825099987       10.8207809334       88.3078514917
H                40.4072715390       12.8878885605       89.2565167653
H                40.4391500673       12.2277884333       90.8884595654
N                34.6893093050       11.5193841247       89.0705810388
C                34.2416647205       12.7819734694       88.4987121877
C                33.1173487888       12.5910386461       87.4892677358
O                32.2022324254       13.4048533266       87.4271187347
C                35.3716274551       13.6325700158       87.8800579601
C                34.9503787186       15.1044556051       87.7952486796
C                35.7637390149       13.1441499981       86.4941799039
C                34.9659801147       15.8185803248       89.1370930014
H                35.4582506468       11.0422868818       88.6200287413
H                33.8030188666       13.3351416405       89.3383831717
H                36.2415189489       13.5338815940       88.5392032526
H                35.6570430604       15.6064340058       87.1329280621
H                33.9560334664       15.1551830795       87.3509681492
H                36.6589863310       13.6704861881       86.1694693736
H                35.9855027216       12.0806569209       86.4986376222
H                34.9677957090       13.3328599673       85.7775514114
H                34.6599970135       16.8522643409       89.0153226865
H                34.2929468457       15.3323091981       89.8391256924
H                35.9705923045       15.7933157456       89.5540645083
N                29.4910124080       14.5172018964       87.9235459018
C                29.1277519034       15.3014396673       86.7605217934
C                29.1181422709       14.3643413021       85.5576189548
O                30.0521507559       14.3386868339       84.7616377319
C                30.1619485149       16.4101229871       86.5401448408
C                30.3596547056       17.3478070948       87.7065556017
C                29.4779401915       18.3978200392       87.9662735871
C                31.4966846264       17.2526060254       88.5030792924
C                29.7531644694       19.3533551453       88.9329964059
C                31.7757033762       18.2115768847       89.4707195482
C                30.9178829009       19.2788684533       89.6797634935
H                30.4030729271       14.0742804459       87.8918332379
H                28.1304455280       15.7105700726       86.9437589446
H                31.1070945192       15.9223975244       86.2950531574
H                29.8268292126       16.9757209320       85.6698109288
H                28.5738407829       18.4826195229       87.3842899603
H                32.1875628562       16.4411952307       88.3342132139
H                29.0518313763       20.1587106255       89.0899360590
H                32.7031798551       18.1355558326       90.0181900995
H                31.1456982878       20.0433970403       90.4055665569
N                29.6643461971       15.2718270001       81.4601837655
C                30.8721862314       16.0281954530       81.1663537479
C                32.0676441212       15.0994577840       80.8391432098
O                32.1676138873       13.9765140910       81.3107846194
C                31.2988540687       16.8457473903       82.3975302954
C                30.3072451361       17.9038246863       82.8829974941
C                30.3781127298       19.2605239802       82.1771306387
C                30.0417307089       20.3731272601       83.1795343688
N                30.2774507259       21.7223516819       82.5880719874
H                29.7288398555       14.6779209726       82.2781502093
H                30.6531296592       16.6696256106       80.3084112371
H                31.4458482270       16.1214798994       83.2030370435
H                32.2604075985       17.3123455152       82.1777409773
H                29.2946790186       17.5015939673       82.8312777166
H                30.5356685904       18.0645803958       83.9375885685
H                31.3914269716       19.4131070096       81.7977411816
H                29.6919338747       19.2820131336       81.3316619523
H                28.9938556587       20.2935567275       83.4715373542
H                30.6785250575       20.2730698196       84.0607934531
H                30.0007611140       22.5142647477       83.2110738596
H                31.2753266029       21.8350320844       82.3551106601
H                29.7341837007       21.8255403952       81.7197860890
N                36.1983727044       14.7496830412       80.9723255716
C                37.4060723721       15.2402069095       81.6203059338
C                38.6094608837       15.1602111522       80.6646281899
O                38.9836868699       14.1152794087       80.1348766651
C                37.5941622232       14.2699486703       82.7768910545
C                37.1127042336       12.9451989387       82.1966125366
C                35.9573050571       13.3482117508       81.2620042197
H                37.2658548682       16.2787007332       81.9226454780
H                38.6295060777       14.2415121674       83.1013268204
H                36.9583803828       14.5704530048       83.6108548673
H                37.8987291256       12.4762509885       81.6081163448
H                36.7886097821       12.2513219936       82.9677251818
H                35.9741176542       12.7491935166       80.3494695275
H                34.9901176707       13.2365412398       81.7608868484
N                46.2655080728       24.9842660538       85.8123982581
C                45.5087358706       23.7854847035       86.0727099441
C                45.7230778544       22.7831056316       84.9471377477
O                46.2858652094       23.1059927426       83.9303237759
C                44.0229628133       24.1427105919       86.2174572431
C                43.7280601053       25.2119040944       87.2741313220
C                44.0283489887       24.7564511745       88.7142150139
C                42.9836361464       25.2345392899       89.7294031250
N                42.9395043982       26.7211371781       89.7950499991
H                45.9790676790       25.6196212775       85.0743727069
H                45.9261387155       23.3735294141       86.9994339220
H                43.6855239869       24.5112630053       85.2473089830
H                43.4659730187       23.2343774305       86.4421418749
H                44.3038829411       26.1028097346       87.0218893988
H                42.6666156705       25.4402593551       87.1687792287
H                44.0274648567       23.6679495296       88.7486833782
H                45.0275857645       25.0777649254       89.0081940407
H                41.9980650214       24.8735072672       89.4334503936
H                43.2274240115       24.8430694892       90.7163699651
H                42.1800178427       27.0424080897       90.4140848187
H                43.8317303753       27.0854400366       90.1612707636
H                42.8047494108       27.1113410330       88.8523542302
N                43.3728638760       19.5171341524       84.8210478994
C                42.1589230439       18.7383387774       84.6705008747
C                41.0360578335       19.7382307628       84.3691709209
O                40.8597202148       20.6900182826       85.1170454849
C                41.8702540712       17.9939224440       85.9885462074
C                42.8799514446       16.9000559210       86.3237349777
C                42.5165938929       16.1973422983       87.6313873089
C                42.8115152756       17.0904996383       88.8423346505
N                42.2228936230       16.5698932644       90.1159973180
H                43.3554781146       20.2148427083       85.5522874806
H                42.2918935088       18.0449273846       83.8384858838
H                41.8695253350       18.7522919786       86.7698617903
H                40.8776058276       17.5495766645       85.9109419704
H                42.8857836247       16.1615418143       85.5200330986
H                43.8892595279       17.3097137291       86.3815958928
H                41.4623946604       15.9305453185       87.6032423450
H                43.0866512455       15.2715355354       87.7188812407
H                43.8926795237       17.1559701401       88.9690882439
H                42.4056272666       18.0856980505       88.6690444765
H                42.5922547924       17.0610477647       90.9378120092
H                41.1964533579       16.6011862280       90.0917935626
H                42.4485017766       15.5394081750       90.2662874334
N                40.2923830948       19.5007197807       83.2977743699
C                39.1513074277       20.3204252118       82.9331020166
C                37.9336404150       19.4314729709       82.6149869929
O                38.0164172559       18.4591086002       81.8609741512
C                39.4135837110       21.1266259144       81.6456374001
C                40.5755982801       22.0550263881       81.7834650856
C                41.8693979604       21.5510961933       81.8261253988
C                40.3606962929       23.4222085604       81.8330408520
C                42.9449699299       22.4116247105       81.9198368935
C                41.4414122947       24.2768197548       81.8817135322
C                42.7320652852       23.7782397169       81.9335432706
H                40.5230304997       18.7362342665       82.6711320619
H                38.9419660247       20.9849031675       83.7738508515
H                39.6014078202       20.4091216531       80.8412993927
H                38.5042296816       21.6764999282       81.3972034145
H                42.0460423245       20.4878821645       81.7456571031
H                39.3567711658       23.8121571074       81.7939937912
H                43.9498446674       22.0163499299       81.9622689903
H                41.2780608630       25.3425627899       81.8858677802
H                43.5811258628       24.4411258370       81.9771493286
N                36.7958295560       19.8170026716       83.1957398431
C                35.5261359568       19.1704493768       82.9105946973
C                34.8342707894       19.9381451262       81.7978724794
O                34.3371684647       21.0268162746       82.0790816286
C                34.5983836050       19.2395888781       84.1189405862
C                34.9394672899       18.1577459364       85.1242283058
C                34.6621186184       18.6614025237       86.5439879324
C                34.1745130868       16.8981557457       84.7507204340
H                36.7703098461       20.6675367123       83.7498367209
H                35.7325952081       18.1442487202       82.5967747156
H                34.7060487462       20.2324590873       84.5555208987
H                33.5650044818       19.1310484544       83.7918428050
H                36.0055533108       17.9444858326       85.0549100681
H                34.9358106359       17.8983058914       87.2615283404
H                35.2541443057       19.5496180294       86.7451459902
H                33.6093255393       18.9042655875       86.6644667195
H                34.5313708186       16.0368476213       85.3044454921
H                33.1142893804       17.0211287774       84.9573102756
H                34.2956255117       16.6784738507       83.6913646217
N                34.7662166123       19.3354319802       80.6041504741
C                34.2424686426       20.0141080074       79.4447010955
C                32.8878495671       19.4449235969       78.9895553779
O                32.6393088335       18.2445470047       78.9155869990
C                35.2826237699       20.0489896438       78.2880109922
C                36.5674487918       20.7249848789       78.7428509819
C                35.6018842154       18.6645520682       77.7600426778
H                35.1653343787       18.4106734575       80.4679147917
H                34.0980656402       21.0422886712       79.7712971769
H                34.8315793050       20.6374625060       77.4830533258
H                37.2426306531       20.8523065365       77.9010480787
H                36.3714581854       21.7035103302       79.1732659846
H                37.0671504007       20.1131239992       79.4903628568
H                36.3683019687       18.7196518634       76.9913414824
H                35.9504132624       18.0084814938       78.5439501098
H                34.7132694674       18.2259702203       77.3062387153
N                31.9454727255       20.3841235633       78.7185261797
C                30.6764773607       19.9545483827       78.1243514267
C                30.8947773606       19.1020680951       76.8546937431
O                31.7622381577       19.3493014516       76.0242197858
C                29.9408256343       21.2680174995       77.7265817134
C                30.8898639914       22.3996945799       78.1219842176
C                32.2343283207       21.6954394165       78.1520879507
H                30.1207388849       19.3578985219       78.8498245708
H                29.7424863155       21.2690061008       76.6567706025
H                28.9723916299       21.3300666235       78.2150622473
H                30.8988803380       23.2036748097       77.3902486594
H                30.6502474866       22.8175395834       79.0978592622
H                32.5666800129       21.5312852963       77.1194965255
H                33.0038593793       22.2377746615       78.6761460480
N                37.4214189112       25.4422603599       72.9180740180
C                38.3156612137       24.9311208139       73.9157991432
C                39.6514924949       25.6482009878       73.8835575497
O                40.1883900779       26.0675636767       74.9077693691
C                38.5990647089       23.4418554439       73.7900176343
C                39.2056457085       22.9146166665       75.0722408869
C                38.7287465112       23.2798733803       76.3457732080
C                40.2678918734       22.0254062403       75.0260426192
C                39.2914281588       22.7555156607       77.4935764481
C                40.7948209249       21.4632498966       76.1989799678
C                40.3210490380       21.8231164210       77.4388742034
H                36.8917627997       24.7785994239       72.3598026809
H                37.8812356123       25.1493941868       74.9000388230
H                37.6463556394       22.9413498336       73.6008636315
H                39.2689657457       23.2465284570       72.9534829803
H                37.9041114322       23.9665806507       76.4497781717
H                40.6738930871       21.7185342699       74.0751590021
H                38.9105747725       23.0622616548       78.4567398400
H                41.6024048432       20.7542260525       76.1010967497
H                40.7293337322       21.4056108010       78.3447299795
N                39.4681710825       28.9196578138       75.3242527065
C                39.3677966409       28.8794261369       76.7581661196
C                40.7418846023       28.5723851455       77.3548236969
O                41.0757607109       29.0504604011       78.4301650166
C                38.3265612332       27.8932331503       77.3064086710
C                36.9678376103       28.0116281315       76.6255938625
C                38.1821817310       28.2365232396       78.7719419575
C                35.9452353421       27.0502024849       77.2102753758
H                38.9322031825       28.2854790054       74.7496308639
H                39.1171104285       29.8903626124       77.1092747364
H                38.7137734961       26.8767557359       77.1759814032
H                36.6042373015       29.0365113577       76.7290051731
H                37.0702853950       27.8126403219       75.5608483714
H                37.6919517134       27.4328768157       79.3146195386
H                39.1505569465       28.4114423203       79.2291625645
H                37.5918362907       29.1428450225       78.8833062526
H                35.0257158116       27.0753140915       76.6294444353
H                36.3263065227       26.0313214096       77.2027684170
H                35.6997201996       27.3183053427       78.2327357969
N                43.4502530494       31.5096635177       79.6233161439
C                44.0678637453       31.3467331139       80.8960829172
C                45.5697420603       31.6398001258       80.8606829895
O                46.2444833305       31.5316549930       81.8776045730
C                43.8310322785       29.9514740720       81.4510889326
C                42.3663776699       29.6684036237       81.7418431689
C                42.2835181778       28.2152307480       82.2362590642
N                41.2843451936       28.0230917399       83.2673889139
C                41.5225987998       28.0223814432       84.5766750602
N                42.7333201533       27.8121397979       85.0888202304
N                40.4857418211       28.0921042521       85.4161153365
H                43.4334634683       30.7415448641       78.9623161394
H                43.6420777841       32.1023862565       81.5713425611
H                44.2049621550       29.2376213340       80.7130929852
H                44.4314607111       29.8557292921       82.3586053318
H                42.0158694721       30.3567861970       82.5115798159
H                41.7727344866       29.8165088570       80.8405848563
H                42.0323546054       27.5651034456       81.3957764610
H                43.2576357768       27.9060144454       82.6133807021
H                40.3323901803       28.1823491726       82.9640496417
H                43.5592862716       27.8065684801       84.4992573473
H                42.9425812659       28.1701831946       86.0082665824
H                39.5575441154       28.2925662644       85.0786222413
H                40.6391473106       28.1466160714       86.4090825279
N                40.4113271595        9.8071629388       81.0439331691
C                40.7444850290       11.1083332511       80.4867555617
C                41.1645726838       11.0358242780       79.0169784965
O                41.8310112520       10.1032767799       78.5891897847
C                41.9959450852       11.6436242090       81.1765969975
C                41.8819250793       11.8628825186       82.6573284842
C                40.7847181832       12.5039298189       83.2045741138
C                42.9265272771       11.4772488245       83.4869518945
C                40.7513248370       12.8050584594       84.5547175530
C                42.8916317841       11.7774363397       84.8311481362
C                41.8186454669       12.4707621158       85.3643248796
H                41.1984237399        9.2307118589       81.3269380391
H                39.8777498227       11.7656787354       80.5946683202
H                42.7944034901       10.9236837578       80.9887521898
H                42.2734861277       12.5853322541       80.6914774575
H                39.9656965287       12.7731423257       82.5601016394
H                43.7473930460       10.9147446358       83.0657627677
H                39.8846173934       13.2812684653       84.9825505689
H                43.6811019766       11.4435094659       85.4843234477
H                41.7992292859       12.6988444482       86.4202726288
H                39.9038449047        9.9161966920       81.7791701389
H                40.8942386830       11.7606891014       78.3833457040
H                29.1796991415       28.1022391054       75.9942470162
H                28.7385769167       28.3380658612       84.8266736914
H                25.2891270246       24.0693390127       84.2748841915
H                39.5812646999        8.2097294957       90.2721649787
H                38.7042930401        9.8816817468       87.6476617711
H                34.9607927890       11.6529711789       89.9181960557
H                33.1247742971       11.8011799726       86.8760237893
H                29.4940316976       15.0448073613       88.6526709647
H                28.3403815883       13.7545849572       85.4050230161
H                28.9813045692       15.8401637387       81.6031784718
H                32.7905421014       15.4130657686       80.2234577850
H                35.5815968844       15.4047671882       80.9510570917
H                39.1306431024       15.9853775573       80.4467532284
H                46.2735225397       25.5005038544       86.5495782236
H                45.3956514508       21.8433539384       85.0454164599
H                44.0602852764       18.9682481684       85.0112477808
H                30.3140579887       18.3068329721       76.6804349983
H                36.7999642657       25.9622906312       73.3096894421
H                40.1211180884       25.7915720021       73.0124108605
H                39.2194959357       29.7324397076       75.0283705266
H                41.3775459915       27.9755356663       76.8652266201
H                42.5815066581       31.7164467246       79.7352107953
H                46.0042900727       31.9208912521       80.0050219564
