 538 
 
N                14.3339701738       34.8028209085       79.7895072836
C                15.1201510667       33.9311627131       80.6451719933
C                16.5174687410       33.7905326509       80.0230071138
O                16.6677070154       33.3464341759       78.8911042624
C                14.4814763468       32.5324153439       80.7701499149
C                15.3803937618       31.6397114556       81.6091420137
C                13.0861768269       32.5956371449       81.3817152741
H                14.2196131810       34.5143825156       78.8210269771
H                15.1971756373       34.4149133805       81.6226445327
H                14.4126129159       32.1230660449       79.7575269696
H                14.9326537248       30.6574081204       81.7212118715
H                16.3553002812       31.5315615057       81.1445152541
H                15.5172800201       32.0737628960       82.5981833099
H                12.6414748898       31.6058544748       81.3791893473
H                13.1275239294       32.9607856853       82.4051995223
H                12.4478208967       33.2616133674       80.8046464471
N                25.1709578636       24.2085782727       84.3010111902
C                23.9260236851       24.1091005318       83.5778438451
C                24.1098284457       24.3889203967       82.0823851082
O                24.9027755808       25.2241856766       81.6487139798
C                22.9273723330       25.1363764326       84.1148256203
C                22.4742312653       24.8475825745       85.5493646450
C                22.0588799958       26.1447510438       86.2359291032
C                21.3251260072       23.8450798656       85.5542679842
H                25.3425381762       25.0117425215       84.9023122127
H                23.5617078132       23.0846490624       83.7099668230
H                23.4182812910       26.1084541581       84.0686011007
H                22.0600070109       25.1777549501       83.4537715223
H                23.3205741074       24.4222686297       86.1019077840
H                21.7334690165       25.9513784759       87.2533750544
H                22.8946140422       26.8387826390       86.2844866652
H                21.2478338280       26.6178257266       85.6897154634
H                21.0267333095       23.6106108463       86.5735207183
H                20.4670732116       24.2501321172       85.0221628811
H                21.6259057084       22.9164122142       85.0757603623
N                23.2894809302       23.7203765213       81.2710620745
C                23.1917449317       24.1028311134       79.8663503606
C                22.4195679862       25.4262483622       79.7393601754
O                21.8982455434       25.9800615650       80.6937237688
C                22.4141553825       22.9586997085       79.2060558819
C                21.5088830288       22.4842481805       80.3439174642
C                22.3541333911       22.6643972347       81.6149469237
H                24.2055257227       24.2327581820       79.4796924234
H                21.8440144864       23.2944826079       78.3436477619
H                23.0996446028       22.1652542789       78.9103696557
H                20.6298306040       23.1251574120       80.4102001577
H                21.1913641720       21.4524011088       80.2199540717
H                21.7230092364       22.9445897841       82.4593620814
H                22.9085450835       21.7532972630       81.8648779683
N                19.2501245451       27.5518629622       77.4272829378
C                17.9361625545       27.2107369231       76.9291239865
C                17.8202291819       27.4139391081       75.4251682462
O                18.4806984561       28.2234210902       74.7844208765
C                16.8486288364       28.0304773770       77.6287860001
C                16.5244295839       27.5453422757       79.0461597748
C                15.8315987733       28.6734868751       79.8019799109
C                15.6255766663       26.3125123670       79.0058766459
H                19.5140956174       28.5243394995       77.4149944441
H                17.8127544918       26.1418574895       77.1349664136
H                17.1751297342       29.0726872737       77.6452882935
H                15.9383079403       27.9974585163       77.0302338360
H                17.4593388462       27.2841415647       79.5534664170
H                15.6327053552       28.3773403747       80.8284336487
H                16.4579986128       29.5600422075       79.8231726224
H                14.8944440822       28.9346760998       79.3186964403
H                15.4469120357       25.9337048431       80.0089588359
H                14.6689253343       26.5666197290       78.5562509896
H                16.0731900257       25.5097248730       78.4235703072
N                 9.4204493955       34.0133782329       76.3760030996
C                 8.2822968125       33.1926270256       76.7320035083
C                 7.0640251412       34.0760771840       77.0690253635
O                 7.1992300876       35.0970978066       77.7432889734
C                 8.5321068465       32.4093973710       78.0485127133
C                 9.7175849939       31.4919903705       77.9961460749
C                11.0121250442       32.0048844363       78.0053199690
C                 9.5369968711       30.1158327110       77.9604582349
C                12.1036764148       31.1562112979       77.9613150875
C                10.6301611343       29.2687407316       77.9286999642
C                11.9148465642       29.7849489895       77.9258786895
H                 9.6260088896       34.7675365684       77.0274528311
H                 8.0608349256       32.5082698352       75.9110086860
H                 8.6742144995       33.1449657267       78.8453789692
H                 7.6288934049       31.8407770296       78.2738653786
H                11.1755452573       33.0706233202       78.0766942254
H                 8.5387652782       29.7062093122       77.9742262037
H                13.1043328937       31.5634770176       77.9541825969
H                10.4809996159       28.2009566690       77.9209883415
H                12.7743941747       29.1322455163       77.9047673798
N                 0.2400885182       32.4046424288       86.6823494966
C                 1.1495627173       31.2855208846       86.8319538288
C                 2.0840305023       31.5740782918       88.0100174548
O                 2.4965577474       32.7218160132       88.2052544520
C                 1.9840933430       31.1125597000       85.5586385649
C                 2.4843121305       29.6822587611       85.3555433783
C                 1.3165609061       28.7298103379       85.0960407315
C                 3.4689995755       29.6504058129       84.1902326160
H                 0.6410873763       33.2862865774       86.3980863817
H                 0.5325296673       30.4097964147       87.0399058799
H                 1.3647810059       31.4117816907       84.7106106733
H                 2.8271883589       31.8057087422       85.6049516467
H                 3.0100980182       29.3691789914       86.2618736206
H                 1.6870550438       27.7732692314       84.7383287972
H                 0.7494847154       28.5613016449       86.0059745323
H                 0.6450170349       29.1465028065       84.3491285660
H                 3.8876292162       28.6542225372       84.0791303715
H                 2.9607566864       29.9114342993       83.2665803156
H                 4.2816169437       30.3516792459       84.3582780650
N                 5.6897989121       31.1598813353       90.1801228831
C                 7.1105197949       31.0471961876       89.9187517546
C                 7.5932803127       29.6012206038       90.0126997583
O                 8.5041827926       29.2012592751       89.3006329517
C                 7.9005071453       31.8679133434       90.9272793841
C                 8.1034694706       33.2954054896       90.4645119944
S                 9.2673393622       33.4195765034       89.0915744080
C                10.7047328199       32.5470123313       89.7740847664
H                 5.3720978370       31.8145749325       90.8841866831
H                 7.3414746449       31.3959175001       88.9022857539
H                 7.3492179777       31.8884552789       91.8719139123
H                 8.8667023192       31.3992734482       91.1191625541
H                 7.1711177693       33.7337484623       90.1093902879
H                 8.4830808542       33.9023863523       91.2884462131
H                11.5588300843       32.8717317024       89.1891480630
H                10.8450199213       32.8312141608       90.8113533172
H                10.5699868512       31.4743535485       89.6746375562
N                 7.0053298172       28.8217520739       90.9241145599
C                 7.4261920703       27.4330446276       91.0208572486
C                 7.0458453961       26.7281435253       89.7237565182
O                 7.8184790425       25.9917291189       89.1275714899
C                 6.8035792963       26.7115279654       92.2436316384
O                 7.3358227066       27.2131102907       93.4440838343
C                 7.0853543174       25.2116638252       92.1869187392
H                 6.3438419195       29.1938150393       91.5913679251
H                 8.5193013909       27.3989680550       91.1082323001
H                 5.7174725787       26.8808310708       92.2102474876
H                 6.9618879024       28.0953972884       93.6158698774
H                 6.6986340385       24.7473248806       93.0890664406
H                 6.6148170236       24.7680409557       91.3160002870
H                 8.1564432277       25.0403462363       92.1389875580
N                 5.7825161327       26.9325956579       89.3344981040
C                 5.3033678594       26.3418366999       88.1001083884
C                 6.2727731873       26.7010146437       86.9711253815
O                 6.6889068691       25.8655008856       86.1764281535
C                 3.8953622566       26.8414715147       87.7788894747
C                 2.8243989848       26.1569159768       88.6315377960
C                 1.4732495949       26.8614819063       88.5617328714
O                 1.3216329591       28.0375437076       88.2423898809
N                 0.4292324232       26.1005183461       88.9097944527
H                 5.2070553089       27.6390236851       89.7805911457
H                 5.3200192339       25.2489142490       88.1963371971
H                 3.8690622398       27.9203816343       87.9420400264
H                 3.6864757940       26.6622513177       86.7234361067
H                 2.7033708132       25.1214283731       88.3142957565
H                 3.1403747246       26.1647747134       89.6765176919
H                 0.5313269032       25.1314830091       89.1604865964
H                -0.4897417438       26.5153538196       88.9208180922
N                 6.6188681006       27.9890147414       86.9190302748
C                 7.4566442956       28.4555240622       85.8387107011
C                 8.8205188425       27.7647890719       85.8507919074
O                 9.2982082779       27.2942651353       84.8230191655
C                 7.6191855149       29.9669806057       85.9177689499
C                 8.2650028364       30.5316507382       84.6798877218
C                 7.8415480320       30.1673749964       83.4025720491
C                 9.2847353281       31.4651235775       84.8021443449
C                 8.4396825881       30.7125306850       82.2833965941
C                 9.8559114295       32.0404749166       83.6766470932
C                 9.4451174231       31.6574616016       82.4116016920
H                 6.1816862196       28.6782311816       87.5210435841
H                 6.9889429767       28.1666293145       84.8886941616
H                 6.6183181181       30.3895823368       86.0411090554
H                 8.2125243854       30.2259486004       86.7956354600
H                 7.0302269875       29.4666256991       83.2763416091
H                 9.6317273006       31.7592181532       85.7812194069
H                 8.1120090812       30.4157770246       81.2984529146
H                10.6356387658       32.7759618746       83.8046752374
H                 9.8904899324       32.1012636824       81.5338270942
N                 9.4174106532       27.7406917895       87.0436735634
C                10.6964075985       27.0818941347       87.2473355165
C                10.6006742355       25.6630935867       86.6761125491
O                11.4445005311       25.2257034120       85.9019386811
C                11.0762643664       27.1047528715       88.7225633910
C                12.5914644774       27.0702021820       88.9725451501
C                12.8637233647       27.2344347045       90.4706896828
C                13.2521164321       25.7843006213       88.4760500398
H                 8.9867540256       28.1782549720       87.8519257318
H                11.4602098567       27.6070544401       86.6555686389
H                10.6802366076       28.0281087772       89.1490412529
H                10.5932935147       26.2710457838       89.2353459299
H                13.0380419544       27.9181323179       88.4437047476
H                13.9338921794       27.2403382196       90.6621586603
H                12.4378115393       28.1658086809       90.8364856058
H                12.4159605523       26.4140798620       91.0260360069
H                14.3175354523       25.8306244913       88.6911444948
H                12.8126363395       24.9250029063       88.9774398600
H                13.1236442455       25.6685021210       87.4056090333
N                 9.5439617745       24.9508423908       87.0686695281
C                 9.3205197476       23.6099227056       86.5745035142
C                 9.3686100332       23.5431199749       85.0455691901
O                10.0338128666       22.6902418090       84.4682932789
C                 7.9590213561       23.0784624571       87.0321618731
O                 7.7668834881       21.8251289367       86.4142529921
H                 8.8769999883       25.3383134725       87.7276908100
H                10.1093906588       22.9367186489       86.9355855353
H                 7.9596644554       22.9890417405       88.1259193519
H                 7.1811023549       23.7882200302       86.7265502394
H                 6.9485862428       21.4316996653       86.7406381280
N                 8.6186638868       24.4400256451       84.4100725010
C                 8.5099533660       24.4008624548       82.9652670104
C                 9.8855195306       24.6496145152       82.3282720385
O                10.2331810315       24.0816677039       81.2975835366
C                 7.4673076108       25.3866608812       82.4115439853
C                 6.1128979038       25.2289498202       83.1108051228
C                 7.3099845803       25.1390085499       80.9129152571
C                 5.0924746375       26.2527105600       82.6241573667
H                 8.0890917291       25.1270908028       84.9301440999
H                 8.2228657699       23.3795209144       82.6764269430
H                 7.8444130361       26.4001967393       82.5872782679
H                 5.7317242744       24.2219783725       82.9289305885
H                 6.2280672941       25.3469296429       84.1856317375
H                 6.7913892296       25.9687803893       80.4434117221
H                 8.2781859431       25.0250975896       80.4366563937
H                 6.7385223963       24.2295682901       80.7437759416
H                 4.1883839924       26.1978832406       83.2263048275
H                 5.4963620805       27.2600626288       82.7000639288
H                 4.8158394504       26.0722546790       81.5897249457
N                10.6689747878       25.5254551428       82.9515622797
C                12.0087639266       25.7864339984       82.4721192033
C                12.8986705333       24.5554580691       82.6642967576
O                13.5554040114       24.0998407388       81.7333921651
C                12.5312510356       27.0540929075       83.1567099166
C                11.9081219005       28.2686967371       82.4620661301
C                14.0505639620       27.1350558087       83.1327715578
C                11.9141765634       29.4882635363       83.3639815422
H                10.3355749484       26.0292218319       83.7654759124
H                11.9682481481       25.9380149971       81.3845072036
H                12.1938378354       27.0220804668       84.1969071802
H                12.4589311794       28.4778397546       81.5436441032
H                10.8733098578       28.0461358839       82.1993037700
H                14.3856962497       28.1072936966       83.4803455460
H                14.4893245086       26.3774598383       83.7707625350
H                14.4173705401       26.9845771802       82.1207623686
H                11.5192168515       30.3476358882       82.8356973127
H                11.2828443397       29.3156608415       84.2321907467
H                12.9180652816       29.7288177660       83.7032620616
N                12.9235357993       24.0294184131       83.8885499691
C                13.6751432291       22.8238738225       84.1740593758
C                13.3421131333       21.7051817420       83.1805115340
O                14.2216343804       20.9955690115       82.7067230450
C                13.3943616001       22.3493502646       85.5973552246
C                14.3288414860       21.1993131387       85.9778130700
C                14.2769350583       20.8341785846       87.4569098634
N                14.7380999342       21.9543142392       88.2535636397
C                14.9240008087       21.9223557407       89.5593035482
N                14.6986797697       20.8111306382       90.2548739367
N                15.2754821738       23.0524732242       90.1950981132
H                12.3082150489       24.3945130817       84.6088702280
H                14.7477910130       23.0281499236       84.0460995239
H                13.5202494280       23.2043152942       86.2634754753
H                12.3529351182       22.0279333286       85.6587013689
H                14.0720028287       20.3143744661       85.3971090796
H                15.3591729599       21.4463995880       85.7195343060
H                13.2537978887       20.5793323070       87.7481480806
H                14.9387874083       19.9787543048       87.6036232760
H                14.9831296474       22.8004427556       87.7555493612
H                14.6484912453       19.9196741539       89.7874149642
H                14.9294312472       20.7690154550       91.2352416919
H                15.2421633573       23.9339877904       89.7047883568
H                15.2332216329       23.0844882961       91.2026578177
N                12.0449504069       21.5744149394       82.8898937843
C                11.5301118730       20.5837593968       81.9687987218
C                12.2906768535       20.5716965648       80.6314869163
O                12.5343698203       19.5417471575       80.0227899927
C                10.0615044789       20.9307723097       81.6794395461
O                 9.6388959578       20.2432594899       80.5236915992
H                11.3496327856       22.0945211089       83.4190570639
H                11.6123823879       19.5699920430       82.3813895906
H                 9.4513564456       20.6623381849       82.5520901412
H                10.0042909180       22.0129754262       81.5118507769
H                 8.7260982118       20.4887564295       80.3272336190
N                12.5818668420       21.7930059428       80.1688235816
C                13.2390830558       21.9891712376       78.9043882768
C                14.7388911968       21.6733844526       78.9242242972
O                15.4085230688       21.7257036283       77.9024798781
C                13.0622958130       23.4247627619       78.4182662293
C                11.6216119757       23.7420243352       78.0270986231
C                11.5221383912       25.2074884258       77.5658874030
N                10.6562196695       25.3863219306       76.4158997527
C                11.0178227737       25.2469121946       75.1412480821
N                12.2852392757       25.1074493477       74.7606044647
N                10.0841783088       25.3924680432       74.1973908346
H                12.4718078252       22.5874152970       80.7857957637
H                12.8029428903       21.2782114842       78.1898526886
H                13.3938936575       24.0846992327       79.2216813866
H                13.7333066792       23.5579031584       77.5658453430
H                11.3278241773       23.0730849612       77.2172145605
H                10.9685693121       23.5578827137       78.8790068838
H                11.1291003193       25.8230635553       78.3745658965
H                12.5183659448       25.5763732024       77.3161982755
H                 9.6649521075       25.3898913106       76.6189162548
H                13.0461036120       24.9004791491       75.3980459977
H                12.4840099923       24.8479369472       73.8087303703
H                 9.1086313129       25.4522620751       74.4447430767
H                10.2986010424       25.1836192411       73.2356797392
N                15.2696663647       21.4046074403       80.1233660586
C                16.6458722363       21.0064325735       80.3056246377
C                16.7423006235       19.4894523606       80.5481516211
O                15.7969873747       18.7760234016       80.8317398985
C                17.2707515304       21.7919459999       81.4619348449
C                17.2558123146       23.2906440391       81.1862405264
S                18.2075957339       24.1805586174       82.4837731671
C                17.0484666274       25.5000174790       82.9192118053
H                14.6777333820       21.2388186163       80.9309803759
H                17.1605970826       21.2320321972       79.3624432594
H                16.6933138801       21.5810543266       82.3638963918
H                18.2967958914       21.4591189834       81.6227103093
H                17.7150123463       23.5120457847       80.2226944418
H                16.2366580695       23.6713380242       81.1984684130
H                17.3850535923       25.9258355996       83.8580364973
H                17.0569307955       26.2645108386       82.1477959745
H                16.0622973102       25.0626739516       83.0233188144
N                17.9863838734       18.9852039543       80.3794627177
C                18.1794758025       17.5911397399       80.0107370716
C                18.5071652243       16.7243968101       81.2316981408
O                19.6054007194       16.7383355525       81.7677745155
C                19.2453378065       17.4851263491       78.8961894892
C                20.6317816967       17.9621431316       79.3266845149
C                19.3194653354       16.0503104985       78.3781751209
H                18.7362874534       19.6148422135       80.1373494707
H                17.2189927740       17.2476525684       79.6040224448
H                18.8916825694       18.1278813102       78.0815259721
H                21.2934191240       17.9617724069       78.4647891558
H                20.6086269784       18.9705633639       79.7325977548
H                21.0393915210       17.3017790217       80.0845557078
H                20.0059033214       15.9986280803       77.5371679652
H                19.6809284299       15.3839095122       79.1562809463
H                18.3450994762       15.7032767890       78.0431923689
N                17.4917981500       15.9583376737       81.6650736351
C                17.5911174253       14.9531369795       82.7192246766
C                17.9353323781       15.5638351487       84.1000783042
O                18.4923936361       14.9041363891       84.9654187345
C                18.6042194877       13.8313693995       82.4044672300
C                18.0864168121       12.6479548158       81.5735583081
C                17.9770183920       12.9909668609       80.0885585640
C                19.0254168932       11.4530625708       81.7591264657
H                16.5937118447       16.0676917891       81.2177024388
H                16.5970479471       14.5077229701       82.8285364655
H                19.4643939804       14.2739964653       81.9029337822
H                18.9296759319       13.4478344596       83.3732360409
H                17.0956207295       12.3634149630       81.9436730001
H                17.5610281021       12.1516846616       79.5367408719
H                17.3335662935       13.8528511391       79.9330861642
H                18.9597531340       13.2099331253       79.6785145837
H                18.6775225525       10.6061494158       81.1727566943
H                20.0314928319       11.7025156715       81.4303412534
H                19.0650371869       11.1495743597       82.8025761760
N                17.5585363241       16.8354178955       84.3055622229
C                18.0294091417       17.5795531499       85.4607224999
C                16.9307615572       17.7937089480       86.5122144061
O                16.4783806836       18.8980266623       86.7601070019
C                18.6028772928       18.9369986919       85.0380850450
C                19.7232652005       18.8525865064       84.0051576464
C                21.1041835176       18.4708141573       84.5585222599
N                21.1405188513       17.2797559105       85.3860857512
C                21.3038012388       16.0113358267       85.0144237014
N                21.3335291336       15.6607826959       83.7287316955
N                21.5290725282       15.1093203034       85.9618204844
H                17.0591341479       17.3512400158       83.5945835024
H                18.7888340242       16.9549444162       85.9408989129
H                17.7800564770       19.5278978556       84.6314846588
H                18.9532304532       19.4409220193       85.9392532296
H                19.4450381864       18.1512739900       83.2244129217
H                19.8393654306       19.8343039497       83.5463378354
H                21.7909371185       18.3344540949       83.7212380323
H                21.4774998389       19.2854971104       85.1806230821
H                21.1419531999       17.4252973005       86.3830558087
H                20.8786396109       16.2361798128       83.0265404603
H                21.4089176784       14.6786154470       83.5182068930
H                21.5244606012       15.4099970307       86.9413776663
H                21.5130147228       14.1262672637       85.7533242414
N                16.4944527276       16.6827547247       87.1318546318
C                15.4921003681       16.7647581720       88.1720882396
C                16.0320395912       16.7574264375       89.6151462128
O                15.4009433533       17.3021793556       90.5097495278
C                14.4579863440       15.6460596088       88.0329630049
H                16.9468333397       15.7991464980       86.9527140403
H                14.9911921020       17.7292820791       88.0343555125
H                13.7042363962       15.7537539706       88.8085854602
H                13.9763501925       15.7089225838       87.0614551893
H                14.9308809046       14.6738059200       88.1407308723
N                18.8049182671       17.9785502272       90.8754825016
C                19.7487818894       19.0538624543       91.1023156744
C                18.9746996272       20.3417717956       90.8006619325
O                18.2943040114       20.4643252862       89.7915566142
C                21.0010310495       18.9365836268       90.2118797179
C                20.6544741262       18.7208236167       88.7362917774
C                20.4065236741       17.2217136165       88.4078403556
O                21.4255025370       16.4965901582       88.3174854729
O                19.2388070655       16.8442401141       88.1904138443
H                18.2443699440       18.0778956001       90.0380341696
H                20.0511431628       19.0046349260       92.1530904708
H                21.5906988019       19.8480480359       90.3335329917
H                21.6045883069       18.0931457440       90.5603795103
H                19.7716525235       19.2999899105       88.4610956891
H                21.5031663326       19.0411760016       88.1276349222
N                19.0220630982       21.2665864680       91.7731916175
C                18.3311286972       22.5228665813       91.6200471291
C                19.2398011830       23.6067421752       91.0412870165
O                20.4591182114       23.5918745299       91.1049828455
C                17.7671013222       23.0103896280       92.9543202190
H                19.7340819454       21.2001508253       92.4835121176
H                17.5364637026       22.3279374763       90.8927665968
H                17.1871883200       23.9180846835       92.8161159468
H                17.1468641659       22.2362259326       93.3975218264
H                18.5802635485       23.2320015485       93.6423340996
N                18.5266249650       24.5899745335       90.4737158582
C                19.0744702407       25.8852639061       90.1883661658
C                18.0282661012       26.9062938036       90.6399370307
O                16.8578314051       26.5735808786       90.7588320443
C                19.3786780716       26.0164572927       88.6844269129
C                18.1456907501       25.8857387803       87.8381483040
C                17.7181008407       24.6384885365       87.4039893839
C                17.4150252674       27.0116866890       87.4796720836
C                16.5951111775       24.5268943528       86.6037310362
C                16.2848841163       26.8987996398       86.6900596238
C                15.8757962007       25.6540691848       86.2466153756
H                17.5128768959       24.5962688121       90.5325627686
H                20.0053320692       26.0192539882       90.7517429495
H                19.8571373771       26.9822929294       88.5132847949
H                20.0858540788       25.2226944292       88.4368622941
H                18.2793727536       23.7586415862       87.6808887964
H                17.7348384298       27.9775945216       87.8455134402
H                16.3128544617       23.5571836554       86.2256386140
H                15.7318783799       27.7838205873       86.4174331984
H                14.9952668480       25.5620933951       85.6317821452
N                16.1131516701       30.6218313137       90.0055035295
C                15.6117522267       31.5444393552       88.9961593257
C                15.4794884583       32.8914720408       89.7177677224
O                14.7524506047       33.0031830815       90.6924142126
C                14.2822633501       30.9962041922       88.4780516710
C                13.7119277685       31.7306016936       87.2622511798
C                14.7002196540       31.8019813155       86.0965175120
C                12.4496538360       31.0117701672       86.7867343290
H                15.5334981982       30.5348233745       90.8288044175
H                16.3616673142       31.6065337488       88.2076546735
H                14.4491818667       29.9500112747       88.2127933692
H                13.5604077740       31.0383288106       89.2959253848
H                13.4540364160       32.7541788515       87.5549121604
H                14.2047764481       32.2242987673       85.2250707057
H                15.5610543009       32.4232476546       86.3269715098
H                15.0454059106       30.8026830069       85.8389674597
H                11.9882011929       31.5751441605       85.9814541840
H                12.7042286617       30.0239502256       86.4123034580
H                11.7319270532       30.9052448798       87.5933262103
N                 8.4941937511       32.0120668278       95.6889997096
C                 8.2204469144       30.9356643054       94.7597832840
C                 6.7225976140       30.5919329811       94.7062527160
O                 6.3029762369       29.7655083932       93.9038925829
C                 9.1241037399       29.7219581307       95.0057687007
C                10.5913814739       30.0353078630       94.7277561829
S                10.8743167867       30.4949827911       92.9627920115
C                12.6833985908       30.6609752876       92.9293312089
H                 8.9647796879       31.7982573372       96.5564171892
H                 8.4467772803       31.3141201654       93.7508943735
H                 9.0206058564       29.4025569666       96.0438981176
H                 8.7978879763       28.9094605677       94.3565302115
H                10.9435876007       30.8789086800       95.3199490279
H                11.2034012525       29.1576503867       94.9252468640
H                12.9361995391       31.1982423562       92.0203633809
H                12.9903363413       31.2328407284       93.7955796984
H                13.1292406402       29.6705123400       92.9266728656
N                19.0385799701       32.4153115958       85.3692226508
C                19.0969483442       31.1947046542       86.1395014401
C                20.5447847015       30.7708668206       86.3379204513
O                21.3909019281       30.9113884272       85.4634310220
C                18.2250761892       30.0856847266       85.5431907712
C                18.7079800773       29.6054588958       84.2184078661
C                18.4471894596       30.3651647997       83.0889288076
C                19.3841623543       28.3992943764       84.0940743982
C                18.8259382602       29.9144537738       81.8432192769
C                19.7768268484       27.9415348381       82.8539767832
C                19.4717552550       28.6911240583       81.7236387113
O                19.7883905475       28.1950966587       80.4965654714
H                19.5906889114       32.5210226553       84.5280290672
H                18.6800562018       31.4368416338       87.1242369785
H                18.2043377940       29.2644062815       86.2576223320
H                17.2183883479       30.4932951189       85.4451756276
H                17.9225393346       31.3038679794       83.1817899752
H                19.5757661650       27.8082703963       84.9775118144
H                18.5900160784       30.4983886725       80.9643367371
H                20.2843596978       26.9991570146       82.7234748507
H                19.3640235052       28.7469081522       79.8229935971
N                 3.4431668780       28.9194924726       76.1287950018
C                 3.6491074372       28.3133172889       77.4298569426
C                 2.7220348905       27.1160416732       77.6472732722
O                 2.0892513658       26.6044881473       76.7403703978
C                 3.3755322539       29.4585811384       78.4090512794
C                 4.0811726134       29.3771145652       79.7656318079
C                 1.8546425932       29.6794853881       78.4908387895
C                 5.5725950182       29.0918230882       79.6175297346
H                 2.7418857374       29.6445576406       76.0977973370
H                 4.6813360737       27.9529726820       77.4561978935
H                 3.8140951668       30.3382228103       77.9327886489
H                 3.9687790547       30.3577487465       80.2323643481
H                 3.6244351853       28.6663350900       80.4565235620
H                 1.4563893876       29.3155659427       79.4330112425
H                 1.6514054296       30.7412994429       78.3872091456
H                 1.3324536908       29.1570108419       77.6915267216
H                 6.0731144827       29.2700242390       80.5673686068
H                 5.7615567583       28.0606321756       79.3331691826
H                 6.0065029161       29.7534750856       78.8724265893
N                 2.6670897936       26.6472144322       78.9094386517
C                 1.5425934748       25.8534163241       79.3431986010
C                 0.7447349849       26.6464209533       80.3729202810
O                 1.1525116106       27.6953317222       80.8431798226
H                 3.0840711950       27.2052060016       79.6408639617
H                 0.9287861435       25.6192642833       78.4696539496
H                 1.8935539991       24.9213178333       79.7983988117
H                13.5004486529       34.8769015214       80.1207986008
H                17.3263798742       34.0638633080       80.5435386983
H                25.2566339503       23.5008871778       84.8504044214
H                22.3287094558       25.8684863170       78.8470764096
H                19.3206563736       27.2972845269       78.2876404689
H                17.1720748701       26.8670735720       74.8952304445
H                10.1589515483       33.5007333681       76.3334612042
H                 6.1550346077       33.8212096966       76.7392090907
H                -0.3780495267       32.2080956059       86.0584306686
H                 2.3607017681       30.8330966046       88.6218991018
H                 5.2651062097       31.4128630018       89.4280348664
H                16.9003514933       16.3065178446       89.8218244203
H                19.2493755265       17.1995937317       90.8000867284
H                18.3013482243       27.8475918365       90.8383914772
H                16.1830097503       29.7975864008       89.6509049225
H                15.9907374542       33.6862328673       89.3906902196
H                 9.0188323883       32.6259054032       95.2915622885
H                 6.0833938755       31.0436068663       95.3286748253
H                18.1949041079       32.5527796505       85.0875959945
H                20.8319863581       30.3625874333       87.2044209708
H                 4.2112309044       29.2947095042       75.8472105018
H                -0.1440574615       26.3098357649       80.6839804008
