 255 
 
N                54.8120527541       56.1752749330      190.1062364124
C                53.6517118745       55.3063458122      189.9354716506
C                53.0205609736       55.4540896722      188.5077114734
O                52.5699830522       54.4726576610      187.8665614469
C                52.5872622811       55.5073764655      190.9984655516
H                54.6932827955       56.7983808799      190.7665231891
H                53.9857440360       54.3648822248      190.0126545017
H                51.8542444413       54.8695376083      190.8672950486
H                52.9960865837       55.3829412486      191.8882412245
H                52.2435572530       56.4361687572      190.9225975763
N                55.5024374294       51.8422408345      188.7175525082
C                55.9935797206       51.3454921786      190.0247963077
C                55.4206803763       52.1800603592      191.1786846646
O                55.7026590797       53.3965809230      191.2563869873
C                57.4841257555       51.3151570399      190.0526287633
C                58.0340528347       50.0798866504      189.3697166355
C                59.3036982302       50.3771332055      188.5865449054
C                59.6683347197       49.2262747732      187.7345555318
N                59.7468908640       47.9496782426      188.5398124800
H                55.8843207563       52.6273353672      188.5053781723
H                55.6452258319       50.4148635850      190.1339274426
H                57.8431374300       52.1193783304      189.5814903008
H                57.8046283794       51.3273765441      190.9894661743
H                58.2388511088       49.3923804835      190.0436092454
H                57.3656912038       49.7379917334      188.7281624248
H                59.1806451647       51.1905634203      188.0345490195
H                60.0560837863       50.5468661391      189.2306266176
H                58.9722885569       49.1139940450      187.0216872927
H                60.5434380438       49.3884719240      187.2861218158
H                59.9577126068       47.2417486558      187.9760564179
H                60.4074389704       48.0247336689      189.1615697464
H                58.9543675065       47.7817084312      188.9359885161
N                54.6114127692       51.5341531982      192.0177427853
C                53.7612212250       52.1555884277      192.9679460245
C                54.0446190630       51.6659558531      194.3655145831
O                53.4228803512       52.1406344046      195.3257803376
C                52.2663903583       51.9599287887      192.6264094956
O                51.8896241367       50.6061257667      192.7920043561
H                54.5283245042       50.6236859430      192.0157630464
H                53.9151256900       53.1456202719      192.9477800271
H                51.7228142593       52.5203503682      193.2367168190
H                52.1172252978       52.2467943201      191.6931310838
H                51.0809887189       50.4969578426      192.4480200288
N                54.9497743955       50.7125456452      194.5147132049
C                55.1972207048       50.1325507264      195.8190127573
C                55.7841620137       51.1133046052      196.8198464519
O                55.3857624176       51.1558760130      197.9673584611
H                55.4595369497       50.3627879072      193.8560872757
H                54.3407206515       49.7843286607      196.1916001561
H                55.8218719868       49.3590471704      195.7353432335
N                56.7472137671       51.8987440616      196.4167923671
C                57.3300524800       52.9130340476      197.2439478573
C                56.3145423551       54.0084261302      197.5964212497
O                56.1692022960       54.3754011767      198.7113892600
C                58.6252611908       53.4497906682      196.5840093118
C                59.6966110123       52.3927445692      196.1569488705
C                59.4704417592       51.7939460702      194.7858967061
O                58.7157568040       52.3244776099      193.9074523173
O                60.0014002588       50.6912526770      194.5979742962
H                57.1139696722       51.8596991313      195.5611036112
H                57.6046904810       52.5099646359      198.1062641137
H                58.3597815132       53.9618385643      195.7733779393
H                59.0579067620       54.0727551118      197.2258309454
H                60.5650906355       52.8075678191      196.1622611060
H                59.6468273893       51.6496146601      196.8124387662
N                55.5627540189       54.4973661260      196.6849539839
C                54.4992249991       55.3844875791      196.9528449257
C                53.5558541693       54.8289885450      197.9996992431
O                53.0644114703       55.5893744170      198.8320559170
C                53.6936356149       55.7447067327      195.6907127621
C                52.5227190510       56.7036015097      195.7883896524
C                52.9084740686       58.0952916024      196.0554670292
C                51.7478998138       56.6021056212      194.4912345028
H                55.6393270678       54.2647893458      195.7625390775
H                54.8971620748       56.2204853020      197.3057694235
H                54.3326144378       56.1498118155      195.0493114270
H                53.3491920859       54.8957794141      195.3221713226
H                51.9632763978       56.4338583384      196.5752620988
H                52.1099157218       58.6723129104      196.0988896692
H                53.4099782895       58.1560981303      196.9062133706
H                53.4976457324       58.4145104598      195.3138015652
H                50.9638365205       57.2404344688      194.5338025647
H                52.3127978162       56.8400245119      193.7409151663
H                51.3824508534       55.6879684839      194.3852899750
N                53.2647891594       53.5335992635      198.0063626397
C                52.3639522980       52.9523363690      198.9921679548
C                52.9537916371       53.0272511927      200.4244095292
O                52.2498353631       53.4074794693      201.3892072793
C                52.0009795051       51.5626914379      198.6294193025
C                50.9159508551       51.4190288561      197.5707839308
C                50.9491542496       50.0275170258      196.8477116707
C                49.5706906504       49.4720581087      196.5821245752
N                49.5306908027       48.4319875810      195.5585328117
H                53.5960218893       52.9360332046      197.4143230076
H                51.5296608501       53.5023957720      199.0168382579
H                52.8197781092       51.0960932128      198.2856649455
H                51.6939478274       51.0706283485      199.4445243891
H                50.0289079832       51.5228111982      197.9922685451
H                51.0435424311       52.1164102994      196.8839138073
H                51.4322564852       50.1063370855      195.9992355301
H                51.4318678434       49.3779356364      197.4419084784
H                49.1947149061       49.0950372606      197.4219220059
H                48.9811853150       50.2242744395      196.2871455081
H                48.6712222254       48.1465576491      195.4060286102
H                49.8660651208       48.7592773601      194.7594937631
H                50.0401165861       47.7141641650      195.8080463121
N                54.2366086129       52.6867818423      200.5571794406
C                55.0415969421       52.8592591668      201.7348561440
C                55.0107186109       54.3146146031      202.2269608838
O                54.7711543077       54.6106992429      203.4420030246
C                56.4949387187       52.4157916351      201.5534284853
O                56.6415035604       51.1487598351      200.9194292375
C                57.1775803376       52.3063067151      202.8448225438
H                54.7328897382       52.3185585945      199.8608527148
H                54.6092184217       52.2778672084      202.4368893646
H                56.9022999359       53.1204753132      200.9794069196
H                57.4686536777       50.9514116905      200.8200019717
H                58.1315402177       52.0405259617      202.7330029381
H                57.1744759679       53.1775712602      203.3415077104
H                56.7443173684       51.6327208077      203.4327679863
N                52.9438946798       56.7124205299      201.7387061982
C                51.6347819863       57.0569513049      202.2258067831
C                51.3652320939       56.5748272583      203.6716130766
O                50.8490998802       57.3587999040      204.5030472240
H                52.9183735458       56.1769427706      200.9957371462
H                51.5277978456       58.0356445603      202.2246248631
H                50.9282187245       56.6566810379      201.6576714535
N                51.6934381528       55.3045604914      203.9746300354
C                51.7409213163       54.7963572853      205.3335659689
C                52.6555627427       55.6583779804      206.2200203193
O                52.2454601944       56.1213274476      207.3505196968
C                52.1856475200       53.3753166858      205.4399480424
C                51.1972179595       52.3777643301      205.0145799970
C                51.9612118836       51.1508581783      204.7009724652
C                50.1801966636       52.0138351266      205.9845041380
H                51.9344108330       54.6864427068      203.3507100282
H                50.8000162296       54.8938167176      205.6647470392
H                52.9913308375       53.2689340659      204.8786033102
H                52.4075147527       53.1865513351      206.3828698517
H                50.6607115683       52.7413540254      204.2380633966
H                51.3599280249       50.4232929614      204.3427337268
H                52.6276395696       51.3444559365      203.9530426529
H                52.4453654169       50.8211325172      205.4704367227
H                49.5548179904       51.3310822875      205.6268496546
H                50.6208340526       51.6389592824      206.7997615530
H                49.6563195387       52.8150857389      206.2567148883
O                56.1757869734       54.2951638051      193.9209095921
H                56.7505677154       54.9263653938      194.1524539683
H                55.7316359631       54.6430748297      193.2424006422
O                54.6300425980       48.5158543018      191.7872175084
H                55.3812261837       48.7335271975      192.2129540010
H                54.0557171188       48.4120137412      192.4712437969
O                46.4579548385       48.5158543018      194.5585275783
H                45.7067712528       48.7335271975      194.1327910856
H                47.0322803178       48.4120137412      193.8745012898
N                46.2759446824       56.1752749330      196.2395086743
C                47.4362855620       55.3063458122      196.4102734361
C                48.0674364629       55.4540896722      197.8380336132
O                48.5180143843       54.4726576610      198.4791836397
C                48.5007351554       55.5073764655      195.3472795350
H                46.3947146410       56.7983808799      195.5792218975
H                47.1022534006       54.3648822248      196.3330905849
H                49.2337529952       54.8695376083      195.4784500381
H                48.0919108528       55.3829412486      194.4575038622
H                48.8444401835       56.4361687572      195.4231475104
N                48.1242763044       56.6505679421      198.3586508404
C                48.7052470486       56.8695757926      199.6484278314
C                47.8003137899       56.4916090180      200.7740187288
O                48.1285367750       55.6164424419      201.5878329460
C                49.1789031036       58.3047951360      199.8113172780
C                50.3366159270       58.4955983186      198.9038453166
S                51.0605324492       59.9217617342      199.4477232356
C                49.7221943952       61.0008527673      198.9142319178
H                47.7762802363       57.4050742046      197.9504994947
H                49.5135538404       56.2676698912      199.6828765144
H                48.4765459077       58.9262993301      199.5396900204
H                49.4682080015       58.4720380146      200.7322916991
H                50.9902972057       57.7293948195      199.0048007284
H                50.0635124886       58.5496296137      197.9649930787
H                49.9877524294       61.9639074883      199.0545379559
H                49.5688380974       60.8621293099      197.9506534597
H                48.9190292276       60.8119170912      199.4286393213
N                46.0333791379       52.9361421284      200.0309318054
C                46.9786512579       51.9782032930      199.5626440767
C                46.5042761611       51.2472232550      198.3732390518
O                46.9827521903       50.1257011844      198.1062987330
H                46.3474219102       53.7985169281      199.9792565566
H                47.8496021919       52.4130236475      199.3508661594
H                47.1573501765       51.3086023257      200.2905030523
N                46.4765846673       51.5341531982      194.3280023013
C                47.3267762115       52.1555884277      193.3777990622
C                47.0433783736       51.6659558531      191.9802305035
O                47.6651170853       52.1406344046      191.0199647490
C                48.8216070782       51.9599287887      193.7193355911
O                49.1983732998       50.6061257667      193.5537407305
H                46.5596729323       50.6236859430      194.3299820403
H                47.1728717465       53.1456202719      193.3979650596
H                49.3651831773       52.5203503682      193.1090282676
H                48.9707721387       52.2467943201      194.6526140029
H                50.0070087177       50.4969578426      193.8977250579
N                45.5252434176       54.4973661260      189.6607911028
C                46.5887724374       55.3844875791      189.3929001610
C                47.5321432672       54.8289885450      188.3460458436
O                48.0235859662       55.5893744170      187.5136891697
C                47.3943618216       55.7447067327      190.6550323245
C                48.5652783855       56.7036015097      190.5573554343
C                48.1795233679       58.0952916024      190.2902780575
C                49.3400976228       56.6021056212      191.8545105839
H                45.4486703687       54.2647893458      190.5832060092
H                46.1908353617       56.2204853020      189.0399756632
H                46.7553829987       56.1498118155      191.2964336597
H                47.7388053507       54.8957794141      191.0235737641
H                49.1247210387       56.4338583384      189.7704829878
H                48.9780817148       58.6723129104      190.2468554175
H                47.6780191470       58.1560981303      189.4395317161
H                47.5903517041       58.4145104598      191.0319435215
H                50.1241609160       57.2404344688      191.8119425220
H                48.7751996203       56.8400245119      192.6048299203
H                49.7055465831       55.6879684839      191.9604551117
N                47.8232082771       53.5335992635      188.3393824469
C                48.7240451385       52.9523363690      187.3535771318
C                48.1342057994       53.0272511927      185.9213355575
O                48.8381620734       53.4074794693      184.9565378074
C                49.0870179314       51.5626914379      187.7163257842
C                50.1720465814       51.4190288561      188.7749611559
C                50.1388431869       50.0275170258      189.4980334160
C                51.5173067861       49.4720581087      189.7636205114
N                51.5573066338       48.4319875810      190.7872122749
H                47.4919755472       52.9360332046      188.9314220791
H                49.5583365864       53.5023957720      187.3289068288
H                48.2682193273       51.0960932128      188.0600801412
H                49.3940496091       51.0706283485      186.9012206976
H                51.0590894533       51.5228111982      188.3534765416
H                50.0444550054       52.1164102994      189.4618312794
H                49.6557409513       50.1063370855      190.3465095566
H                49.6561295932       49.3779356364      188.9038366083
H                51.8932825304       49.0950372606      188.9238230807
H                52.1068121215       50.2242744395      190.0585995786
H                52.4167752111       48.1465576491      190.9397164765
H                51.2219323158       48.7592773601      191.5862513236
H                51.0478808504       47.7141641650      190.5376987746
H                55.5303324670       55.6781797802      190.3229635750
H                52.9661310962       56.3543689931      188.0758150359
H                55.6999863866       51.2435926034      188.0752171558
H                55.1818881948       55.0628838870      201.5860287093
H                53.3902380779       57.4627837511      201.5202282651
H                53.5867350049       55.8686956133      205.9222205354
H                45.5576649695       55.6781797802      196.0227815117
H                46.9159570374       56.9464791942      200.8789294388
H                45.2838345262       52.8856793944      199.5353146269
H                45.8028656805       51.6503222363      197.7854171835
H                46.6791877866       51.8322315152      195.1526848420
H                46.3535094454       50.9580536866      191.8287201588
H                44.7477724545       54.8768007939      189.4126616319
H                47.1814772896       52.7704997766      185.7588945007
