 466 
 
N                 2.5671992374       41.9125032723       72.9546072491
C                 1.5317534037       42.3793348229       73.8486517699
C                 0.2864663120       42.7823651133       73.0613077818
O                -0.8025269434       42.8345937225       73.6107808642
C                 1.9863909232       43.5610345673       74.7158338780
C                 2.3634588773       43.2014450994       76.1574401195
C                 1.1813480276       42.7343739692       77.0184411100
N                 1.4663915742       42.9933974513       78.4253162340
C                 0.7176375078       42.6231093837       79.4593288400
N                -0.4688336023       42.0550436296       79.3012926107
N                 1.1476788143       42.8758878360       80.7004067996
H                 3.4199575926       42.4535842619       72.8875811405
H                 1.2142204286       41.5379342375       74.4788326158
H                 2.8531115469       44.0089875287       74.2295586891
H                 1.1873127532       44.3037245344       74.7348066332
H                 3.1423705268       42.4395047046       76.1460468461
H                 2.7804395520       44.1068364639       76.6018218657
H                 0.2721791739       43.2656933028       76.7180788378
H                 1.0084217658       41.6622657133       76.8879036030
H                 2.3460634394       43.4498906990       78.6247785347
H                -0.9070390381       41.9234703974       78.3935262166
H                -0.9963884524       41.7824260994       80.1119145170
H                 2.0713401649       43.2405903248       80.8846765601
H                 0.5783985008       42.6405887468       81.4950223361
N                 2.2242047661       37.7936998377       79.7660618205
C                 3.4261102348       38.4918148250       80.1686082948
C                 4.6144643214       37.9331971482       79.4096058764
O                 4.8022030957       36.7189480130       79.3539815035
C                 3.6738034579       38.3042975889       81.6750647592
C                 2.5581281994       39.0058505671       82.4594898544
C                 5.0474837072       38.8442060191       82.0542208554
C                 2.3346184590       38.3827348814       83.8287170961
H                 2.0697149655       36.8677174846       80.1579215768
H                 3.2743776426       39.5471884209       79.9392111668
H                 3.6345352681       37.2293071559       81.8830003675
H                 2.8081939976       40.0618319874       82.5701536382
H                 1.6296367174       38.9238713482       81.8913642101
H                 5.2092082835       38.7161256784       83.1213449025
H                 5.8443934587       38.3195091053       81.5327331749
H                 5.1157087415       39.9040815537       81.8252719671
H                 1.5120258999       38.8715120364       84.3438168386
H                 2.0999976424       37.3238153843       83.7313162701
H                 3.2189251342       38.4756662740       84.4525425952
N                 5.4589600252       38.7899576798       78.8474536144
C                 6.6337179055       38.2970615708       78.1362655385
C                 7.8648007814       38.2877758570       79.0620713754
O                 8.3525266363       39.3218427425       79.5113973764
C                 6.7879169800       39.3088927421       77.0021439980
C                 6.3375108895       40.6235557085       77.6325653555
C                 5.2272723932       40.2085237258       78.6083878906
H                 6.4568121712       37.2777521709       77.7867570930
H                 7.8088332708       39.3514071177       76.6345788394
H                 6.1238518040       39.0284910502       76.1831324853
H                 7.1582685390       41.0765178599       78.1857122737
H                 5.9849362954       41.3302995329       76.8856938479
H                 5.2945715271       40.7782026511       79.5363715479
H                 4.2392661581       40.3414444566       78.1589818707
N                 3.7218873132       34.2401579278       79.2528322893
C                 3.3015398955       33.5427014054       80.4467614968
C                 1.9193539730       34.0367588718       80.9011175445
O                 1.6606415423       35.2362860625       80.9809617500
C                 4.3227785071       33.7068360110       81.6203465606
C                 4.8597188527       32.3415681426       82.0439765144
C                 5.5331419688       34.5680339779       81.2774113339
H                 3.9462940213       35.2321922735       79.3366020507
H                 3.2649683860       32.4873923115       80.1648994962
H                 3.8007277340       34.1666317736       82.4680112834
H                 5.5574122193       32.4445047266       82.8715874791
H                 4.0627106070       31.6777557052       82.3514052382
H                 5.4036897534       31.8875780711       81.2192836047
H                 6.2068414403       34.5438698593       82.1257332597
H                 6.0644076614       34.1738477877       80.4127015531
H                 5.2710950789       35.5982572063       81.0762535926
N                 1.0056084967       33.1001258517       81.2071551729
C                -0.2182566629       33.4243679931       81.9315281297
C                 0.0227145759       34.4145814946       83.0792273091
O                 0.9679230264       34.3258474744       83.8473130221
C                -0.6762794689       32.0915256971       82.5506502693
C                -0.1153386384       31.0354286887       81.6090856531
C                 1.1926750531       31.6595133003       81.1243939379
H                -0.9663217490       33.8294958575       81.2429075821
H                -0.2168644050       32.0058025239       83.5378782932
H                -1.7543544831       32.0648668282       82.6953310886
H                 0.0684664857       30.0856169141       82.1036183959
H                -0.8048678686       30.8617339939       80.7841788815
H                 2.0259072756       31.3419697130       81.7536223614
H                 1.4077665067       31.3868709436       80.0983197677
N                -0.9465771268       35.3335024447       83.1904615846
C                -0.9837582606       36.3516497167       84.2238103851
C                -0.8081736148       35.7352598409       85.6086172867
O                -0.2486473560       36.3585471380       86.5037280380
C                -2.3048999994       37.1360641362       84.1217290393
C                -2.1952466305       38.6486740896       84.3859157029
C                -3.0146634440       39.3915389074       83.3309708244
O                -4.2190426007       39.2446787140       83.2075336988
N                -2.3186753536       40.2299962191       82.5438986029
H                -1.7502381363       35.2742108033       82.5838979542
H                -0.1295811607       37.0244703782       84.0711770306
H                -2.6684690460       37.0164454457       83.0971738860
H                -3.0569766967       36.6876971056       84.7710869195
H                -2.6033884432       38.8964372193       85.3656210517
H                -1.1557824392       38.9689150138       84.3476756663
H                -1.3156681372       40.2743570696       82.5855406104
H                -2.8212320243       40.7189729137       81.8203349864
N                -1.3001412055       34.5116508168       85.7725493620
C                -1.4255014501       33.9430693287       87.0953538281
C                -0.8377029040       32.5316319956       87.1252544681
O                -1.4488538088       31.5205553565       87.4166680336
C                -2.8699825398       33.9834862217       87.6297589366
C                -3.9278026073       34.0972945086       86.5291746625
C                -3.8461295170       32.9314172860       85.5054243653
O                -3.0453054551       33.0710112824       84.5384924631
O                -4.5936720394       31.9637188361       85.6885349887
H                -1.9128456852       34.0447753228       85.0666890032
H                -0.7873095700       34.5470173009       87.7568763155
H                -3.0462414626       33.0679094067       88.1977332840
H                -2.9754445877       34.8372457283       88.3031583235
H                -4.9165886628       34.0594252817       86.9871835139
H                -3.8175585625       35.0460532211       85.9996896821
N                 0.4804997109       32.5507263318       86.8801065395
C                 1.3366797544       31.3900803756       86.9948300228
C                 2.2697623598       31.5914163331       88.1984684820
O                 2.8669990666       32.6583554514       88.3486893413
C                 2.1725994240       31.2475728080       85.7198688778
C                 2.5953146250       29.8149113151       85.4127973543
C                 1.3734902382       28.9375404414       85.1549972965
C                 3.4996524467       29.8341268814       84.1875996980
H                 0.8883042386       33.4112705804       86.5467571713
H                 0.6832091277       30.5330983618       87.1630635952
H                 1.5852832337       31.6483813756       84.8893755653
H                 3.0555569538       31.8804064814       85.8175990539
H                 3.1538404391       29.4246373033       86.2678697550
H                 1.6700074502       28.0011801680       84.6896067991
H                 0.8592214157       28.7134728925       86.0830257381
H                 0.6773669551       29.4562870051       84.4987795611
H                 3.8314279900       28.8324989036       83.9305258963
H                 2.9369495658       30.2327198698       83.3471289001
H                 4.3730416260       30.4565301845       84.3615402309
N                 2.3778609003       30.5704707647       89.0588735612
C                 3.3496740807       30.6548890842       90.1317802389
C                 4.7549132321       30.5046413799       89.5430441169
O                 4.9874242175       29.7808778486       88.5844548562
C                 3.1650705973       29.6214597365       91.2653754277
O                 3.9462508414       28.4701560393       90.9883412190
C                 1.7106096730       29.2303040379       91.4972991271
H                 2.0369320549       29.6515287678       88.7636470075
H                 3.2683053794       31.6548798904       90.5655803105
H                 3.5655991184       30.0978047636       92.1764306396
H                 3.7017527816       27.7971732433       91.6393119032
H                 1.6414887173       28.5818631939       92.3673003701
H                 1.1183099410       30.1195026141       91.6869289247
H                 1.3113049422       28.7188105965       90.6271023603
N                 5.7147542524       31.1890481946       90.1710558964
C                 7.1080437080       31.0357686737       89.8117018702
C                 7.5838236258       29.5971060142       89.9721543569
O                 8.5499840242       29.1969815031       89.3403330879
C                 7.9820326178       31.8625456682       90.7369735775
C                 8.0869863004       33.3187347142       90.3432976936
S                 9.3669260903       33.5906668274       89.1071067429
C                10.7516452957       32.6044925123       89.7362062838
H                 5.4518326407       31.8982010734       90.8387253627
H                 7.2759349626       31.3270564357       88.7652626502
H                 7.5559467409       31.8091685854       91.7459817263
H                 8.9739846226       31.4124946251       90.8071547103
H                 7.1595412804       33.7017239551       89.9149001625
H                 8.3262853214       33.9141573745       91.2304857105
H                11.6297899304       32.9780077379       89.2208514739
H                10.8704412421       32.7464114118       90.8065902333
H                10.6066939661       31.5555262402       89.4953769755
N                 6.5199362719       28.0288628232       86.8894843190
C                 7.3962148125       28.5387838083       85.8657906079
C                 8.7340797314       27.8137393220       85.8596242576
O                 9.2231569985       27.3919588277       84.8182965458
C                 7.6466848825       30.0340954334       86.0090492206
C                 8.2832039912       30.5887430019       84.7555967792
C                 7.8122036656       30.2551879005       83.4791157757
C                 9.3442999069       31.4749187321       84.8425539288
C                 8.4029777109       30.7797171530       82.3472813917
C                 9.9136510162       32.0279140113       83.6989914124
C                 9.4572927536       31.6709695501       82.4456766862
H                 6.0517656210       28.6858678010       87.5041810931
H                 6.9312586544       28.3411545175       84.8916085732
H                 6.6779661599       30.5123339942       86.1754854278
H                 8.2853782595       30.2358370152       86.8703522240
H                 6.9602319837       29.6049985651       83.3692583845
H                 9.7240658800       31.7636031079       85.8096195258
H                 8.0232884235       30.5044451129       81.3750441456
H                10.7295249262       32.7242717626       83.8110492790
H                 9.9027509841       32.0848895617       81.5543319355
N                14.9393751274       37.0381738339       89.5493535006
C                14.5210002514       38.1755466941       88.7515656635
C                15.6916421439       39.1454412479       88.6745098704
O                16.3903807305       39.4104769726       89.6565254111
C                13.2181239424       38.7607299497       89.2830371977
C                12.8574705137       40.0259808892       88.5187304152
C                12.1070610524       37.7155237425       89.1776132448
H                14.8019425306       37.0861897746       90.5571264328
H                14.3551160857       37.7994816803       87.7350090156
H                13.3623898960       39.0013034239       90.3408606371
H                11.8830642149       40.3772350187       88.8411922657
H                13.5783435552       40.8165642944       88.7023143998
H                12.8281995971       39.8291450271       87.4483535405
H                11.2001328223       38.1114550207       89.6213150029
H                11.9124030909       37.4794761872       88.1335809204
H                12.3889379351       36.8042911393       89.6982615910
N                12.7836953579       35.6145112143       94.9806554940
C                11.3942285746       36.0173810699       94.9944531777
C                10.5257829775       34.9465846188       95.6371499011
O                10.9185121981       33.8063278140       95.8622164964
C                10.8898635541       36.2980104416       93.5537807655
C                11.6601344170       37.4510868920       92.9185636439
C                10.9871133086       35.0434132631       92.6951283694
H                13.0169476267       34.7909252198       94.4496311017
H                11.3518181169       36.9363808114       95.5887513394
H                 9.8388344989       36.5886949204       93.6313667817
H                11.2242369881       37.7145665819       91.9604615315
H                11.6370681376       38.3282036575       93.5610732873
H                12.7023314467       37.1849047162       92.7597588721
H                10.5484783147       35.2343303029       91.7196214271
H                12.0272124257       34.7604587057       92.5353200332
H                10.4658546425       34.2080642322       93.1600088956
N                 4.5416017650       33.3706805788       94.0762989046
C                 3.9751254619       34.5833186737       93.5207589362
C                 3.4607349079       34.3074906548       92.1053456005
O                 3.9107082968       33.3718642131       91.4474560705
C                 5.0274010038       35.6773828024       93.4754686314
H                 5.5489068923       33.2698062083       94.0414973634
H                 3.1236004623       34.8854087907       94.1406188519
H                 4.6438212695       36.5340445272       92.9299933763
H                 5.2770460105       35.9986155979       94.4831933042
H                 5.9274654464       35.3057615859       92.9931223137
N                 2.5156112345       35.1465053422       91.6839863503
C                 1.9585020224       35.0677080635       90.3591460658
C                 2.8204167722       35.8759366976       89.3926949717
O                 3.4698704491       36.8439128283       89.7686743093
C                 0.5154686384       35.6352913349       90.2902815205
O                 0.5207851043       37.0503277632       90.3089041195
C                -0.3832159802       35.0776502963       91.3881485655
H                 2.2237536154       35.9037809606       92.3122343163
H                 1.9594140177       34.0167916886       90.0498165291
H                 0.1161422032       35.3631394604       89.3050132292
H                 0.3984068891       37.3418352053       91.2233024236
H                -1.4049167963       35.4156509417       91.2318361873
H                -0.3687099933       33.9926325667       91.3801365739
H                -0.0485588368       35.4226001449       92.3661466619
N                 2.7206742846       35.5019327811       88.1085248614
C                 3.5192634469       36.1808441893       87.1069882141
C                 3.1336565315       37.6473966181       87.0389889336
O                 3.9833340010       38.4999560324       86.8001421179
C                 3.4648444635       35.4811382739       85.7623995859
C                 4.3661445165       34.2623613580       85.7920593065
S                 6.0934205545       34.7804924094       86.0534487643
C                 6.7884455037       33.1287111918       86.1965129798
H                 2.4554962742       34.5417528612       87.9258669079
H                 4.5751097795       36.1695302861       87.4108014006
H                 2.4439045320       35.1976373889       85.4994084211
H                 3.8384331627       36.1635751990       84.9984483007
H                 4.1048887082       33.5989234166       86.6180521413
H                 4.3180193662       33.7193501546       84.8487448123
H                 7.8141594190       33.2241140357       86.5350274372
H                 6.2044090547       32.5789752998       86.9312995434
H                 6.7580168420       32.6436475457       85.2257272674
N                 1.8603563376       37.9343388643       87.2768050127
C                 1.3806323350       39.2997154179       87.3293413368
C                 2.0998266222       40.0545196139       88.4433601357
O                 2.5770427595       41.1681817359       88.2706030080
C                -0.1201820371       39.3138487244       87.5826695990
H                 1.1623575379       37.2009121849       87.2984042601
H                 1.6290430999       39.8078746377       86.3893723168
H                -0.4879475781       40.3352217255       87.5747803187
H                -0.6181278669       38.7340552284       86.8128102778
H                -0.3412705718       38.8568225880       88.5436029263
N                 2.1166871008       39.4362451412       89.6211021625
C                 2.8650334666       39.9956725118       90.7221984402
C                 4.2926527557       40.3401396532       90.2559699012
O                 4.7919545708       41.4391655940       90.4801112164
C                 2.8156977482       39.0359729670       91.9236752927
C                 1.4967836890       39.1643799468       92.6906042369
C                 1.0163787025       37.9704776863       93.5886983862
O                 1.6602203856       36.8972696446       93.6055317924
O                -0.0262481848       38.1985797881       94.2253696544
H                 1.7412400853       38.4991781145       89.7155251660
H                 2.4192630843       40.9607262587       91.0077763350
H                 2.9542704595       38.0176624778       91.5591579097
H                 3.6492443401       39.2564308363       92.5950682147
H                 1.5580510685       40.0111804212       93.3735880285
H                 0.6740296549       39.3632336482       91.9992723336
N                 4.9416817123       39.4007431087       89.5639058867
C                 6.3290990664       39.6504145170       89.2096653635
C                 6.4312301950       40.7908145020       88.1908026615
O                 7.3909847435       41.5555669696       88.1551432603
C                 7.0720020398       38.4344393022       88.6235174447
C                 6.5143368896       37.0973742060       89.1096184033
C                 8.5612829551       38.5400370150       88.9377218357
C                 6.4802743418       36.8846908574       90.6170159695
H                 4.5421882452       38.4774145023       89.4674896240
H                 6.8453082578       39.9913839433       90.1192945994
H                 6.9382560867       38.4424543058       87.5356508791
H                 5.5012816285       36.9962785656       88.7340275580
H                 7.1052722498       36.3028138177       88.6502473963
H                 9.0731184103       37.6617349673       88.5547140138
H                 8.9971357254       39.4265184416       88.4858844925
H                 8.7150021619       38.5943721753       90.0129507870
H                 5.9181584293       35.9745535932       90.8150088802
H                 7.4795956139       36.7710576472       91.0276424938
H                 5.9830289964       37.7014016590       91.1341671507
N                 5.4308128523       40.8669995206       87.3146890646
C                 5.4322672516       41.8465520785       86.2401755279
C                 5.2220208516       43.2496929729       86.8037887121
O                 5.8545944947       44.2313165174       86.4115582110
C                 4.3190425869       41.5092365914       85.2334039677
C                 4.5033413307       42.2466167382       83.9333246557
C                 5.6411931108       42.0019664406       83.1717793469
C                 3.5841166515       43.1783769543       83.4734572662
C                 5.8481893305       42.6384998146       81.9665476070
C                 3.7909584255       43.8400806062       82.2754653485
C                 4.9151848031       43.5619255159       81.4988353671
O                 5.0547816519       44.1944163030       80.3108338194
H                 4.7357302405       40.1283173308       87.2883326713
H                 6.4165031112       41.8355212691       85.7541771206
H                 4.3630658201       40.4317675510       85.0592585974
H                 3.3537734390       41.7403684052       85.6858271063
H                 6.3692976151       41.2971158586       83.5361434187
H                 2.7092889054       43.4000772393       84.0642754902
H                 6.7328838693       42.4265643200       81.3850898861
H                 3.1249582837       44.6269536514       81.9563870887
H                 5.9004701515       43.9122417687       79.9032113127
N                 4.2409902005       43.3198359440       87.6927690977
C                 3.9547512445       44.5099057142       88.4652217314
C                 5.2628087470       45.0811837764       89.0179224201
O                 5.6059865061       46.2387092755       88.8079680059
C                 2.9731468775       44.1308861946       89.5733370253
C                 2.6189668384       45.3169071776       90.4639323522
C                 1.2133593957       45.1915022701       91.0439740148
N                 0.8385620656       43.8834410465       91.5814691093
C                 1.2793445237       43.2744345401       92.6876715506
N                 0.4298380812       42.4314526732       93.3000280749
N                 2.4749188834       43.4742175532       93.2093223192
H                 3.7764328320       42.4678284971       87.9912176109
H                 3.4981022583       45.2677033135       87.8157071435
H                 2.0794933419       43.7324201975       89.0927469457
H                 3.4114531555       43.3369378505       90.1788736091
H                 3.3691853608       45.4178141681       91.2441544630
H                 2.6337024747       46.2383573680       89.8814227646
H                 1.0816220050       45.9526110779       91.8180135505
H                 0.4993416059       45.3792370166       90.2420422858
H                -0.0949347902       43.6051028238       91.3089824676
H                -0.5171292986       42.3002149061       92.9871090511
H                 0.7229850458       41.8914400547       94.0960978094
H                 3.2987082136       43.8827166639       92.7229026829
H                 2.7420584027       42.9262702078       94.0115337110
N                 6.0022662631       44.1930899407       89.6800414964
C                 7.0651280825       44.6086381131       90.5587957186
C                 8.4451759248       44.7466076766       89.9098116952
O                 9.3192998215       45.3691029540       90.4953698473
C                 7.1473106062       43.6344773468       91.7275572053
C                 5.8717994262       43.5966654439       92.6308376758
O                 4.8662884987       44.2230909430       92.2334534825
O                 5.9469863650       42.9342325133       93.6783057726
H                 5.5999956613       43.2881306916       89.8944530949
H                 6.8228284379       45.6104946311       90.9466858235
H                 7.2830089690       42.6201885923       91.3488072355
H                 8.0051053184       43.8713363020       92.3596028883
N                 8.5998315061       44.2262169600       88.6682171367
C                 9.9348654267       44.1309358223       88.1066501217
C                 9.9723462337       44.2205343448       86.5731450242
O                10.9769937006       43.8778684805       85.9527794743
C                10.7004089085       42.8423468824       88.5163811830
C                10.5787811592       42.4572293768       89.9652498148
C                 9.5324289392       41.6282688688       90.3567787483
C                11.5015152150       42.8346032146       90.9307331122
C                 9.4056359236       41.1855708893       91.6540583851
C                11.3691966639       42.4168589196       92.2469221854
C                10.3051860096       41.6066315833       92.6278675712
O                10.0752451422       41.2148756866       93.9204290243
H                 7.9470729122       43.4875837660       88.4156001424
H                10.4938173947       44.9942074547       88.4926508009
H                10.3041071888       42.0236657832       87.9101882074
H                11.7495962560       42.9788844790       88.2489748547
H                 8.8041915265       41.3354714238       89.6191341342
H                12.3369206003       43.4595492455       90.6517614017
H                 8.5921974008       40.5436650911       91.9603151356
H                12.0719481778       42.7528496637       92.9982290491
H                10.7485387331       41.5781922063       94.5088206990
N                 8.8781321423       44.6701314301       85.9382485958
C                 8.9552260154       44.8733273001       84.4897496457
C                10.0890634867       45.8743098098       84.1936115218
O                10.2680929294       46.8740721775       84.8836934276
C                 7.5977185547       45.2694183710       83.8820546866
C                 7.4725034774       46.7233345367       83.3980912850
C                 6.2227721680       47.4286171948       83.9196171942
C                 6.3261504211       47.7342777079       85.4201913827
N                 5.3179515477       46.9684254139       86.1999350640
H                 8.0987509038       45.0263549653       86.4745966524
H                 9.2861043512       43.9195318664       84.0611424147
H                 7.4141604291       44.6091786832       83.0345492206
H                 6.8374614627       45.0350369688       84.6266624995
H                 8.3450983573       47.3075021547       83.6852545958
H                 7.4687845236       46.7406937197       82.3070826372
H                 6.1113687171       48.3566224288       83.3604381959
H                 5.3523040042       46.8073030385       83.7067096001
H                 7.3258077663       47.4855573942       85.7768419652
H                 6.1624379869       48.7962862745       85.6006197199
H                 5.3953830816       47.1768293812       87.2186753646
H                 4.3787826075       47.2129596733       85.8594788634
H                 5.4781074871       45.9341520964       86.1136941579
N                 9.0230617885       46.2951949704       78.1711476069
C                 8.0295994065       45.5015443935       78.8527628620
C                 8.3905015917       44.0424539331       79.0727018160
O                 7.5320674267       43.2927065106       79.5373991150
H                 8.7126566082       46.8428025421       77.3855390341
H                 7.8761968056       45.9075546556       79.8635413582
H                 7.0817193336       45.5528396247       78.3156964843
N                10.1220530065       41.2488895957       81.4150864267
C                10.7078484747       41.0084777181       82.7279124160
C                11.8260233589       39.9829825910       82.4979486718
O                11.6145866399       38.9118895209       81.9377853386
C                 9.6658860087       40.5598834767       83.7729983575
C                 8.5574471392       39.7398362889       83.1264372471
C                10.3617207324       39.7574579290       84.8638258484
H                 9.7687990557       40.4403990792       80.9156825958
H                11.1536934777       41.9545909796       83.0531090135
H                 9.2393378644       41.4677912122       84.2144262674
H                 7.8752584636       39.3659247571       83.8852234614
H                 8.0022454635       40.3292009118       82.4029588268
H                 8.9931622247       38.8929854240       82.6056920981
H                 9.6636246161       39.5279020150       85.6649204073
H                10.7435238412       38.8230835522       84.4586802003
H                11.1898651670       40.3199208211       85.2897094911
N                14.7183244693       37.4325150508       83.7498401499
C                15.1147464216       36.5204002989       84.7881899218
C                16.4044829637       35.8434579417       84.3865205830
O                16.5772123609       35.4800897738       83.2276339849
C                14.0997328731       35.3902438875       84.9380329774
C                12.7320349249       35.9453055011       85.2478567007
S                11.6583982942       34.5593561426       85.6491430808
C                10.0881108507       35.4768660704       85.6861706708
H                14.6851479667       37.0373771623       82.8098579437
H                15.2381460859       37.0641181400       85.7287206641
H                14.0717030480       34.8181150910       84.0076731086
H                14.4351891911       34.7309799920       85.7431237019
H                12.7734726067       36.6161731132       86.1112807747
H                12.3265379274       36.4841121606       84.3911783365
H                 9.3375110756       34.8003377976       86.0725763229
H                10.1972533057       36.3277261146       86.3510394917
H                 9.8358529331       35.7979789311       84.6813849345
H                 2.8330255607       41.0902562249       73.2060951393
H                 0.3599671605       43.0055588277       72.0893087123
H                 1.5026663639       38.2770437532       80.0021994784
H                 8.2932546907       37.4204957650       79.3155521233
H                 4.4681830559       33.8563189123       78.9277011240
H                 7.1051011234       28.9787194549       90.5953901300
H                 5.8528901719       27.5603687087       86.5079574325
H                 9.2309920203       27.6739737977       86.7160959591
H                14.4889195539       36.3047482234       89.2863389569
H                15.9155205348       39.5910769469       87.8077415682
H                13.2848141753       36.2758961201       94.6321588122
H                 9.5838461210       35.1572048951       95.8986724768
H                 4.3252563387       33.3098484942       94.9477884995
H                10.7044295267       45.7185072715       83.4209212825
H                 9.3841625357       46.8844495964       78.7476762151
H                 9.3060374056       43.7134698411       78.8412636156
H                 9.4219889772       41.8086179217       81.4964163471
H                12.7562978585       40.1796900297       82.8076187204
H                13.8924770731       37.7451363885       83.9237481063
H                17.1214860360       35.6900301684       85.0664959596
