 51 
 
N                35.7410833853       26.9699656022       99.3215549705
C                36.6319398061       26.2480289050       98.4380484677
C                38.0654351182       26.3343631754       98.9611614316
O                38.4751604747       27.3146299936       99.5839868895
C                36.5714701620       26.8143389752       97.0151953982
C                35.1853577348       26.6858433912       96.3803232093
C                34.8130592998       25.2427307860       96.0316668487
N                35.6232713491       24.6864168659       94.9608050164
C                35.3623366267       24.8026382956       93.6611757974
N                34.3335122609       25.5230046053       93.2124347751
N                36.1463157813       24.2057567918       92.7664273739
H                35.7980739890       27.9755969055       99.3077385860
H                36.3097108121       25.2038597463       98.4746807617
H                36.8369490612       27.8720975438       97.0602788551
H                37.3233948885       26.3062031157       96.4114524496
H                34.4375587517       27.0867051959       97.0645699505
H                35.1635838048       27.3089022995       95.4874472245
H                34.9422350214       24.6071057467       96.9068301117
H                33.7580816993       25.1988940002       95.7580112365
H                36.4540450185       24.1866399414       95.2506464281
H                33.6800562609       25.9520877055       93.8473130683
H                34.0973368498       25.4508741481       92.2329473077
H                36.9527534861       23.6741810458       93.0427110453
H                35.9383259610       24.2847154154       91.7771226273
N                38.8225658440       25.2656297409       98.6999102944
C                40.1741005378       25.1607163814       99.2317449914
C                40.9648711753       26.4115515057       98.8182691742
O                41.2281123919       26.6328441990       97.6524209482
C                40.8512006663       23.9086937163       98.6746821031
C                42.1925321544       23.6211415929       99.3509387222
C                42.8127865945       22.3475289271       98.7636803902
C                44.2586299574       22.1123836322       99.1829098925
N                44.3687901091       21.8305089822      100.6452219003
H                38.4946799474       24.5228515080       98.0844055919
H                40.1175594718       25.1264784080      100.3270489356
H                40.1808685191       23.0618604075       98.8241419118
H                41.0108281454       24.0682138519       97.6076450953
H                42.8589152775       24.4712716676       99.1887341119
H                42.0231592308       23.5227949877      100.4242766011
H                42.1996192003       21.4871075380       99.0322132251
H                42.8079391150       22.4332344311       97.6775823247
H                44.6602834749       21.2560308281       98.6406172200
H                44.8635921231       22.9893116091       98.9497856818
H                45.3447241539       21.6229359626      100.8996869954
H                44.0596511932       22.6484035106      101.1887852085
H                43.7788127363       21.0226670046      100.8970950880
O                38.0531691058       22.9995989843       96.6758853080
H                38.8293022971       22.7826863182       96.1495924043
H                37.6045589106       22.1956020627       96.9661244806
H                34.8876960568       26.7738604252       99.1135337528
H                41.2727148112       27.0609762080       99.5135963288
