 534 
 
N                27.6906357159       30.7694721780       75.9809153733
C                27.0444448530       31.9704862478       76.5238283315
C                26.7307295085       32.9486116526       75.3504222127
O                27.4489016311       33.8671041208       74.9965166238
C                27.8052773181       32.5603605576       77.7417860136
O                29.0535153718       33.1472662064       77.5017017225
H                27.0295818376       30.0646337051       75.6908399682
H                26.0804341275       31.6431844868       76.9256349879
H                27.1804261023       33.3354367807       78.1909841380
H                27.9286987706       31.7406278959       78.4621057290
H                29.5920438667       32.5276877193       76.9621069420
N                25.5987554369       32.6339060018       74.6849730345
C                25.1581266656       33.5403266102       73.6298868621
C                24.8505509949       34.9008108253       74.2816984554
O                24.0169069708       34.9850588867       75.1628835414
C                23.9234137816       33.0382444064       72.8405266803
C                24.2841360399       31.9616685334       71.8004268833
C                22.8200586714       32.5608372822       73.7824235684
H                24.8811953648       32.0600597208       75.1019832753
H                26.0005962774       33.6542701855       72.9380766025
H                23.5492128347       33.9147003192       72.2990870495
H                23.3875809393       31.6661703037       71.2640661206
H                25.0020581659       32.3483361440       71.0824524165
H                24.7056234300       31.0845866930       72.2837745300
H                21.8802379269       32.4925211194       73.2395238703
H                23.0398258332       31.5703349787       74.1750919226
H                22.6844299500       33.2670301052       74.5968267636
N                25.5944986564       35.9270905162       73.8669750084
C                25.6402984673       37.2590577298       74.4627314970
C                24.2277256460       37.7569331399       74.8768245809
O                23.2468108107       37.5172801400       74.1850073792
C                26.3262207557       38.2356595534       73.4706187646
C                27.7094612992       38.7687694889       73.8997307696
C                28.6712439967       37.7443587667       74.5261063801
N                28.5861419264       37.7686497654       75.9878129978
C                28.8941308289       36.7761577279       76.8280055850
N                29.4035743468       35.6355000941       76.3925765015
N                28.6690408374       36.9347824647       78.1411020371
H                26.2868329772       35.7561353343       73.1516725625
H                26.2372910599       37.1752589664       75.3746303660
H                26.4216162469       37.7294749764       72.5103631247
H                25.6739759139       39.0944752145       73.3120431401
H                28.1783065003       39.1802607343       73.0072513959
H                27.5750126429       39.5981709755       74.5959858413
H                28.4280640906       36.7405871333       74.1739280017
H                29.6950164159       37.9863878270       74.2275032346
H                28.3780218581       38.6774952055       76.3815010331
H                29.4200773973       35.4425718669       75.4033171100
H                29.3855701225       34.8030475739       76.9845618937
H                28.4566714267       37.8410575206       78.5252345679
H                29.0041976735       36.2276732518       78.7759295044
N                24.1791686094       38.5017829103       76.0104975865
C                22.9275007281       38.8913322560       76.6451979908
C                21.9485563484       39.5082523330       75.7002073319
O                22.2881933973       40.2792215777       74.8045811522
C                23.3077535391       39.9645756100       77.6757483383
C                24.6864120285       39.4966177946       78.1241144194
C                25.3039984698       38.9766533421       76.8252322284
H                22.4659126519       38.0228326517       77.1334614307
H                23.3867185838       40.9342954788       77.1825662334
H                22.5799528982       40.0191767372       78.4827717049
H                25.2759139030       40.3019618078       78.5537961798
H                24.5769191790       38.6950203456       78.8537907057
H                25.8069558978       39.7970256113       76.3045460352
H                26.0022305420       38.1667336003       77.0348311731
N                20.6697418426       39.2751935252       75.9822279603
C                19.6495914561       39.8195432443       75.1076900452
C                19.3165944327       41.2620472465       75.4687413462
O                18.8178249656       42.0328722245       74.6696706716
C                18.4751267186       38.8513185616       75.0849905402
C                17.1896489936       39.3714544643       74.5205472902
C                16.4473107255       40.2837619383       75.2629851822
C                16.6521539811       38.8009801105       73.3735381380
C                15.1444836175       40.5804111064       74.9189212914
C                15.3365261773       39.0740941536       73.0484882582
C                14.5814182387       39.9354000332       73.8304231084
H                20.3883213629       38.6418733605       76.7353389467
H                20.0824600641       39.8843013055       74.1054968365
H                18.7860928534       37.9565108688       74.5444459748
H                18.2803068564       38.5462237751       76.1196385497
H                16.8723781624       40.6982041170       76.1644535630
H                17.2227069166       38.0954962295       72.7933239359
H                14.5622975186       41.2580532833       75.5216956965
H                14.8706815772       38.6138318896       72.1898465983
H                13.5466242602       40.0988065130       73.5730316963
N                19.7754739347       41.6948330618       76.6538620747
C                19.8815768741       43.1284314169       76.8530424807
C                20.6560466279       43.7792307414       75.6707986711
O                20.2957148378       44.8475012252       75.2164264952
C                20.5536685839       43.4240824188       78.2051370720
C                19.5735437215       43.4571621462       79.3875310311
C                18.6248971694       44.6580884648       79.2704679717
C                17.7986958435       44.8816331539       80.5331949329
N                17.0185734074       46.1351520570       80.3963279407
H                20.0520648676       41.0620188088       77.3892663986
H                18.8866736663       43.5860742407       76.8162480714
H                21.3169661166       42.6673416948       78.3901108892
H                21.0487765009       44.3937985145       78.1414246385
H                19.0016921252       42.5313623922       79.4476679474
H                20.1492857532       43.5493406188       80.3074555994
H                19.2266611104       45.5486588260       79.0857300969
H                17.9372610812       44.5264260982       78.4363113238
H                17.1041537221       44.0567699580       80.6968538066
H                18.4390094888       44.9760540945       81.4104629566
H                16.3936237394       46.3408615274       81.2603728252
H                17.6349166556       46.9399327737       80.2569403846
H                16.3449653533       46.0785621286       79.6241797857
N                21.7683328812       43.1401590094       75.2609326609
C                22.7001780093       43.6742997010       74.2821392925
C                22.3006752594       43.3771325932       72.8273271188
O                22.4573710900       44.2009504668       71.9410233065
C                24.1135853816       43.1086336496       74.4921425007
C                24.7719500100       43.5541478561       75.8061994175
C                26.2182623823       43.0822005189       75.8188586890
O                26.5461105912       41.9435633914       76.1133114836
N                27.1108156228       44.0033654723       75.4344615830
H                21.9454793182       42.1925336091       75.5674892479
H                22.6977566748       44.7646298252       74.3875186396
H                24.0570214821       42.0182208961       74.4657725517
H                24.7253019445       43.4450558819       73.6533421569
H                24.7294792403       44.6387864846       75.8961081531
H                24.2469121974       43.1147035712       76.6546214351
H                26.8442898285       44.9449737641       75.2059559746
H                28.0894781363       43.7627959167       75.4118169739
N                21.8064083700       42.1505944011       72.6182711890
C                21.3601486768       41.6598003542       71.3259717866
C                20.3785828841       42.6071339540       70.6027591630
O                20.1450796959       42.4378429486       69.4076252716
C                20.6129059379       40.3094385959       71.5060369000
C                21.4857266476       39.0881674685       71.8493154868
C                20.7241601788       37.7860303444       71.6575801929
N                20.6586595459       37.2512929853       70.2735268341
C                20.9129896984       37.6324772128       69.0090771656
N                20.7353503973       36.7349244541       68.0270919109
N                21.2729973715       38.8597302627       68.6112860154
H                21.8191823116       41.4804284200       73.3811315269
H                22.2285284256       41.5463813410       70.6631463994
H                19.8562226580       40.4640998762       72.2790595472
H                20.0690401850       40.1084239556       70.5812393921
H                22.3928843425       39.0747717264       71.2442770523
H                21.8199550998       39.1264826666       72.8837447049
H                21.2180594116       37.0181153972       72.2550361393
H                19.6966580213       37.8985013874       72.0132921908
H                20.3151365073       36.2988309388       70.3227227401
H                20.4187988210       35.7969070863       68.2114167932
H                20.9163260406       36.9791413422       67.0670543039
H                21.5665602443       39.5601828569       69.2735864920
H                21.5762434643       38.9942005564       67.6580182174
N                19.7285624909       43.4973470169       71.3447880237
C                18.6132927665       44.2673505458       70.8436799045
C                18.7064483432       45.6885078366       71.3993536117
O                18.4889066657       45.9140442722       72.5827520889
C                17.2939690814       43.6516263813       71.3620783643
C                17.0642024630       42.1999814372       70.9258190954
C                16.5025528414       42.0325265954       69.5084707587
C                16.9231737450       40.7084556523       68.8661521019
N                18.1973783437       40.8574414187       68.0823526205
H                19.8718811880       43.5454173140       72.3442866453
H                18.6668219312       44.2608485801       69.7525191236
H                17.3426304261       43.6744984248       72.4508597168
H                16.4619192518       44.2805190157       71.0445122555
H                18.0085755873       41.6664635767       71.0278435828
H                16.3688595683       41.7447386456       71.6323356502
H                15.4134178530       42.0720570606       69.5540800328
H                16.8233023670       42.8618432522       68.8774277889
H                17.0638870767       39.9617042064       69.6465172510
H                16.1381801467       40.3597610325       68.1965008689
H                18.0016797297       41.3767714067       67.2153894888
H                18.9180371666       41.4200598018       68.6072751843
H                18.5727718910       39.9345984554       67.8314566131
N                19.0144470347       46.6599046095       70.5326559421
C                18.8457507852       48.0533332373       70.8900419589
C                17.5288167552       48.1850901562       71.6711433936
O                16.5475153538       47.5419010951       71.3082909083
C                18.6914710761       48.8730946184       69.5586580287
O                19.2740445327       48.2317441248       68.4639384126
H                19.1371307453       46.4826603907       69.5411517924
H                19.6955662486       48.4046869812       71.4829467487
H                17.6284517855       48.9557136142       69.3185663860
H                19.0909138914       49.8792286622       69.7093493324
H                20.2301330937       48.3769965003       68.4579767387
N                14.4723737907       47.9277443529       69.3105050289
C                13.9910281392       46.6807738045       68.7255334470
C                13.0632226062       45.9459010833       69.6973739941
O                11.9821025902       45.4601143428       69.3926105869
C                15.1264825263       45.6949757446       68.3236340742
C                16.4928760799       46.3348834103       68.0038983423
C                14.6324340349       44.8006771010       67.1851765788
C                16.5329342597       47.3390386666       66.8624405726
H                15.4142504617       47.9323859893       69.6865878081
H                13.3910811071       46.9492583313       67.8473770401
H                15.2963433397       45.0523694697       69.1954880782
H                16.8673277371       46.7972392801       68.9155768351
H                17.1683325067       45.5158549623       67.7552008215
H                15.3879111396       44.0676267747       66.9259473442
H                13.7243113286       44.2823938266       67.4846698342
H                14.4022046299       45.3924927651       66.3027016507
H                17.5217422216       47.7846092241       66.8061223198
H                16.3181179135       46.8593537444       65.9116034930
H                15.8002081403       48.1305124171       67.0053439596
N                13.5943679555       45.7919369941       70.9162207338
C                12.9003125902       45.0496896573       71.9452299950
C                11.6685316809       45.8138139451       72.4514734820
O                10.6732698691       45.2353149188       72.8797798260
C                13.8861766874       44.5946240443       73.0275178744
C                14.5738609602       45.7183165634       73.7961122312
C                15.9211559980       45.2482974443       74.3607834462
N                16.1478761083       45.8627477950       75.6479020327
C                17.2070080646       46.5083065768       76.0943874738
N                18.3001855496       46.7123757369       75.3751731843
N                17.1606295233       46.9462003745       77.3831869155
H                14.4449088866       46.2807241234       71.1661194653
H                12.4902876572       44.1470490198       71.4700642302
H                13.3380401874       43.9666750823       73.7285756030
H                14.6350902912       43.9805212911       72.5255202636
H                14.7253763929       46.5916097871       73.1625752655
H                13.9282301294       46.0340126168       74.6194037731
H                15.8877191594       44.1642759802       74.5101906410
H                16.7297468214       45.4962808583       73.6750582575
H                15.3440985983       45.8164548984       76.2840006338
H                18.4352706053       46.2812951605       74.4662947666
H                19.1349010964       47.0532602383       75.8250778842
H                16.2253596020       47.0143031384       77.7689294059
H                17.7882443102       47.6948545756       77.6380029955
N                 9.1881863784       44.8527753281       70.1845292586
C                 8.8769786724       43.4297314907       70.2142758963
C                 7.8063705872       43.1285450088       71.2607578273
O                 6.8975264503       42.3426989981       71.0346870120
C                10.1638821474       42.6441869962       70.4312277417
C                10.0921453313       41.2343448803       69.8747960354
C                11.5182685550       40.6469661445       69.6176563880
O                11.5299668629       39.5253260624       69.0531939449
O                12.5103095304       41.2902901204       69.9741594788
H                10.1613183292       45.0954631685       70.0163050080
H                 8.4382364581       43.1542144364       69.2421555106
H                10.9661873500       43.1696784444       69.9045518883
H                10.4176094097       42.6387950573       71.4933137711
H                 9.5423709500       40.5716874302       70.5446484976
H                 9.5742494783       41.2317875574       68.9127056975
N                11.8654053749       37.2392989523       79.6328038194
C                13.1243634268       36.7709260693       79.0877200598
C                13.8518300337       35.9535934176       80.1738042036
O                14.0122281947       36.4336996969       81.2925766947
C                14.0144109674       37.9540998773       78.7082043194
C                15.3116258557       37.4515532851       78.1112685528
C                13.3024610430       38.8761424716       77.7378012705
H                11.9074306974       37.7934450477       80.4807374426
H                12.9039348335       36.1481916016       78.2195055109
H                14.2379939467       38.5182927541       79.6243133013
H                15.9471829680       38.2836269420       77.8140972430
H                15.8744335206       36.8551049520       78.8280213217
H                15.1047251043       36.8427981317       77.2398650178
H                13.8748790585       39.7901142414       77.6032669726
H                13.1953277136       38.3954394116       76.7683701244
H                12.3154757797       39.1425625035       78.1042659685
N                14.2430000320       34.7178479207       79.8559307614
C                15.0442857659       33.8670263182       80.7158222443
C                16.4301842678       33.7266186577       80.0542082436
O                16.5078624953       33.3204093997       78.8980183698
C                14.4037995153       32.4703756219       80.7977857179
C                15.3621502641       31.5241028972       81.5043670750
C                13.0223119761       32.4996476690       81.4416307565
H                14.1480942721       34.4205075813       78.8893944609
H                15.1326323037       34.3456864786       81.6931341925
H                14.2890582718       32.1293026468       79.7621116793
H                14.9028549435       30.5476583454       81.6292741911
H                16.2771134169       31.4021548446       80.9328895331
H                15.6207075154       31.9099222496       82.4892678150
H                12.5784855470       31.5102077869       81.3964911916
H                13.0931532779       32.8065560251       82.4831400281
H                12.3767970105       33.1996366974       80.9174475128
N                17.5093550401       33.9968664227       80.8168009343
C                18.8657716835       33.8096832501       80.3135341432
C                19.7843772897       33.2572497507       81.4089944124
O                19.8384046185       33.7307346866       82.5382813517
C                19.5081989330       35.0890191077       79.7291723585
C                18.7648460236       36.3761247248       80.0702276176
C                19.3495423111       37.6286878876       79.3165726912
O                19.8260931221       37.4660465278       78.1665331501
O                19.2629430168       38.7132907830       79.9259604426
H                17.3817871334       34.4570445156       81.7095968631
H                18.7617938697       33.0699804991       79.5116379346
H                20.5353719902       35.1784017538       80.0927630904
H                19.5443610372       35.0214381035       78.6409666219
H                17.7187701085       36.3102408544       79.7569456295
H                18.7770580298       36.5975503447       81.1385230598
N                20.5287492845       32.1951313256       81.0641841840
C                21.4855737212       31.5652732397       81.9823284990
C                22.4685871593       32.6569276264       82.4049590425
O                23.0140942140       33.4041517702       81.6072142885
C                22.2056958570       30.3798835381       81.3295980087
C                23.4660273942       29.9840233065       82.0619058500
C                24.0105964843       28.6253315766       81.6249196954
N                24.6170018604       28.5762188054       80.3126734842
C                25.7386856841       29.1846664062       79.9032075632
N                26.3546106804       30.1019643818       80.6458792960
N                26.2510571626       28.9027497601       78.6919257801
H                20.6107121530       31.9590691837       80.0857012842
H                20.9373673409       31.2360618776       82.8696581350
H                21.5354129792       29.5289338057       81.2918690755
H                22.4692037159       30.6755447892       80.3098451004
H                24.1966834868       30.7858125955       81.9676251199
H                23.2239628837       29.9002470203       83.1256824624
H                24.7516313595       28.2806913876       82.3475363602
H                23.1940339333       27.9004806437       81.6167401699
H                24.2405983789       27.8543638245       79.7150598144
H                26.0753844246       30.3089924268       81.5890310532
H                27.2234269364       30.5204135046       80.3510863581
H                25.7657974914       28.3046946447       78.0418504739
H                27.0443206949       29.4255047546       78.3489743569
N                25.4022818472       34.7172882148       83.1454327067
C                26.5206794636       34.7786425681       82.2099855053
C                27.6490354356       33.7902191223       82.5742240361
O                28.1986466559       33.1744491631       81.6746069203
C                26.9537937351       36.2572285497       82.2103947602
C                26.1821609486       36.8979528427       83.3678929062
C                24.9144028414       36.0588799996       83.4640675118
H                26.1745904901       34.4635122454       81.2191257842
H                28.0301313343       36.3583479173       82.3291554462
H                26.6690683748       36.7190021691       81.2672392579
H                26.7371556974       36.8157283946       84.3020799524
H                25.9591270633       37.9447963690       83.1836057927
H                24.4845357735       36.1181480215       84.4590936538
H                24.1677812199       36.3608373701       82.7216055201
N                14.2937582578       31.9110928683       74.6650801589
C                14.6614326241       33.0175725422       75.5255867967
C                13.4711455107       33.8970581489       75.9030849319
O                13.4337181248       34.5471284248       76.9428824319
C                15.7858306170       33.8315689748       74.8355007778
O                16.9152583189       33.0060397010       74.7080392901
C                16.1229968758       35.1363629232       75.5247107122
H                14.2152642885       32.1722413044       73.6884338582
H                15.0810059183       32.6031864837       76.4513270701
H                15.4863164029       34.0448487440       73.8004133964
H                17.3224080233       32.8869454239       75.5730192253
H                17.0128420656       35.5745453739       75.0780584418
H                15.3104963197       35.8511189033       75.4273742799
H                16.3267825893       34.9686540502       76.5819031344
N                15.0012222658       37.1901016216       89.5900947225
C                14.4329794568       38.2429245592       88.7693699274
C                15.5276595832       39.2924100482       88.6357209704
O                16.1952506694       39.6891723244       89.5866986694
C                13.0644954914       38.7034796145       89.2676530004
C                12.6068060886       39.8872483746       88.4302041841
C                12.0258470094       37.5803383339       89.1490797312
H                14.8187803352       37.1845998967       90.5932878326
H                14.2968013967       37.8153490654       87.7670606163
H                13.1545547811       39.0024527565       90.3165200474
H                11.6000216632       40.1671635539       88.7191409150
H                13.2494404758       40.7528312734       88.5678509701
H                12.6111110046       39.6321548760       87.3723990125
H                11.0780225491       37.9238276323       89.5467690848
H                11.8861430628       37.3207454850       88.1031454927
H                12.3426858079       36.6931588152       89.6893063031
N                15.8460246247       39.5927321626       87.3769648186
C                16.8894135394       40.5592780290       87.1281499955
C                18.2419314584       40.1215033832       87.6991310191
O                19.0817054821       40.9516157428       87.9952519158
C                16.5539875523       41.9480180048       87.7168866356
C                15.2601431555       42.5466929548       87.1461047702
O                14.3032898796       42.7185462524       87.8866969435
N                15.2380786639       42.8520496482       85.8259495328
H                15.2069500537       39.3759939243       86.6113939488
H                17.0185934474       40.6343710079       86.0428165106
H                16.4265215500       41.8563805539       88.7937533060
H                17.3957373275       42.6087155254       87.5098285661
H                14.4322530102       43.3559563602       85.4886343507
H                16.0828045857       42.8827637985       85.2812934990
N                11.0632484142       45.4949490748       83.2084223071
C                11.9679493977       46.5024604760       82.7009873457
C                11.2565478009       47.6748734942       81.9882763044
O                10.0623651289       47.7476433335       81.7372391281
C                12.9082174289       45.8487061513       81.6941054721
C                14.1955228333       46.6306007495       81.3651794227
O                15.1400459516       46.5235196018       82.1974173306
O                14.2983839578       47.2227716422       80.2729700229
H                10.8880204434       44.7335983958       82.5596761001
H                12.5219686529       46.9351517080       83.5486275908
H                13.2331592774       44.8904718764       82.1056201994
H                12.3552607045       45.6656969870       80.7708919749
N                12.1657829576       48.6021217501       81.6337760629
C                11.8632851946       49.8289557153       80.9286835488
C                11.1285774818       49.3906937937       79.6640820331
O                10.0297710339       49.8453109458       79.3785256615
C                13.1321864989       50.6624931263       80.6708515671
C                14.2414986844       50.4897357192       81.7267586839
C                13.8864816708       50.3256727972       83.2701902522
O                12.9306359237       50.9570467627       83.7594519179
O                14.6596537239       49.5662711045       83.8937757980
H                13.0750563830       48.5571556566       82.0621445716
H                11.1511541128       50.4200767944       81.5252883815
H                13.5469163392       50.3741346665       79.7031075679
H                12.8241714476       51.7062839344       80.6228573045
H                14.8391648493       49.6070953108       81.4881086352
H                14.9009753323       51.3586446003       81.6788466607
N                11.7761078148       48.4934726503       78.8893994501
C                10.9868066592       47.7573580793       77.9021649100
C                10.0874315011       46.7548703877       78.6383262684
O                10.3393012428       46.2960925559       79.7357067910
C                11.8508379895       47.0235469465       76.8789181269
C                12.8006737046       45.9752448901       77.5695837178
O                12.2884089050       45.0133120610       78.1670372983
O                14.0189614232       46.1921280221       77.4143373236
H                12.5637568282       48.0017753821       79.3079436027
H                10.3654157572       48.5099570235       77.3992391513
H                11.1979923166       46.4971319437       76.1793692178
H                12.4575292830       47.7516031987       76.3388787410
N                 9.5464265705       43.6524130518       78.7572320937
C                 9.8795844400       42.3512427396       79.3144097012
C                10.2996720948       42.4237517127       80.7841867664
O                10.9661106630       43.3562992108       81.2119754781
C                11.1310444962       41.8159517817       78.6245682653
C                11.0170244903       41.5966934721       77.1438367786
C                 9.9198175942       40.9556461718       76.5965911490
C                12.0616266881       41.9823271662       76.3142133683
C                 9.8864242480       40.6545175313       75.2464477099
C                12.0267311951       41.6821396510       74.9700171266
C                10.9537448779       40.9888138749       74.4368403833
H                10.3335231509       44.2288641318       78.4742272238
H                 9.0128492337       41.6938972552       79.2064969426
H                11.9295029011       42.5358922329       78.8124130731
H                11.4085855387       40.8742437366       79.1096878054
H                 9.1007959398       40.6864336650       77.2410636235
H                12.8824924570       42.5448313549       76.7354024952
H                 9.0197168044       40.1783075254       74.8186146939
H                12.8162013877       42.0160665248       74.3168418151
H                10.9343286969       40.7607315425       73.3808926341
N                 9.9940304691       41.3490193143       81.5383818516
C                10.6876015516       41.0667108316       82.7971517979
C                11.8210659171       40.0521003566       82.5649573777
O                11.6061791047       38.9491011573       82.0713367728
C                 9.7438832252       40.5170208695       83.8681250887
C                 8.8274624158       39.4281409586       83.3448199076
C                10.6123049121       39.9869160720       84.9929181746
H                 9.4984057821       40.5787813283       81.1045936740
H                11.1196438280       42.0148832935       83.1345834748
H                 9.1416491897       41.3535658389       84.2414795900
H                 8.2305767220       39.0313794954       84.1629762873
H                 8.1553874514       39.7973386902       82.5738363992
H                 9.4199762071       38.6167949779       82.9309491799
H                 9.9985159412       39.6698031900       85.8338817924
H                11.2021687392       39.1317812382       84.6733279087
H                11.2891088712       40.7583811565       85.3594501933
N                13.0610153416       40.4464645617       82.8773505816
C                14.1914980159       39.5600740693       82.6883083617
C                14.4159507513       38.6852543996       83.9542068022
O                14.2403228356       39.1230113151       85.0965021768
C                15.4433743889       40.3838431318       82.3948621288
C                15.4228833219       41.1158436560       81.0762915461
C                14.4912099897       42.1091939900       80.7667056076
C                16.4082274978       40.8282857902       80.1392111657
C                14.5327761975       42.8069214189       79.5707633585
C                16.4436917921       41.4985186233       78.9321991821
C                15.5152107466       42.4945210059       78.6331560766
O                15.5686030922       43.1803631729       77.4595893801
H                13.2098294454       41.2784037324       83.4265523124
H                13.9459917501       38.8891556724       81.8597869148
H                15.5588831406       41.1036933947       83.2121291577
H                16.3063432734       39.7155512258       82.4055520987
H                13.7130047105       42.3763263147       81.4659849514
H                17.1544598229       40.0735754829       80.3417986229
H                13.8249389456       43.5961369814       79.3644402483
H                17.2168101910       41.2519437261       78.2184780136
H                16.2702816827       42.8120788832       76.8992103888
N                14.8284766758       37.4377765531       83.7313001730
C                15.1282863408       36.4941783485       84.7854247711
C                16.3972152358       35.7791289316       84.3923031509
O                16.5835715218       35.4051267489       83.2362887143
C                14.0771234103       35.3996318411       84.9301418800
C                12.7234254115       35.9775451231       85.2400190805
S                11.7022225936       34.5617686721       85.6160799545
C                10.1050563011       35.4115912265       85.7507883631
H                14.8234146024       37.0504946885       82.7910142053
H                15.2578385113       37.0394094566       85.7231730452
H                14.0299365741       34.8309588444       83.9980451988
H                14.3971897036       34.7293851696       85.7317156969
H                12.7648758922       36.6477375494       86.1023636991
H                12.3156292665       36.5143981674       84.3816981419
H                 9.3532015688       34.6547061514       85.9340621229
H                10.1446328384       36.1010030552       86.5884364529
H                 9.8973966335       35.9376057908       84.8252703384
N                17.2385122156       35.5533212731       85.3950297596
C                18.4427879437       34.8101341154       85.1553543021
C                18.2821981888       33.4928764290       85.8469158621
O                17.5827159319       33.4008874694       86.8544609390
C                19.6714457398       35.5790280945       85.6571172301
O                19.8336032436       36.7658557082       84.9285006452
C                20.9118708121       34.7195834475       85.5586441057
H                17.0317095095       35.8468503784       86.3387161751
H                18.5423194116       34.6662673977       84.0733781127
H                19.5158647612       35.8920125975       86.6942710076
H                19.9808254878       36.5459701942       83.9998461493
H                21.7576045094       35.3206159192       85.8804717906
H                20.8457491929       33.8663125238       86.2266693166
H                21.0367257696       34.3893143821       84.5318101860
N                18.9151809765       32.4499763189       85.3006164499
C                19.0200878891       31.2897647452       86.1594574987
C                20.4583840530       30.8658904889       86.4058526069
O                21.3636157035       31.0374236696       85.5993797441
C                18.1530325704       30.1674167175       85.6200429282
C                18.6865116658       29.6530136353       84.3318350447
C                18.5066143700       30.4015820258       83.1768105579
C                19.3145854653       28.4138731029       84.2825358875
C                18.8988657830       29.9010307247       81.9536976531
C                19.7453377360       27.9225382140       83.0708974140
C                19.5282799263       28.6624603727       81.9019348566
O                19.9184312391       28.1284095257       80.7032521835
H                19.5431404651       32.5853365064       84.5218210609
H                18.6104261627       31.5895401385       87.1312517877
H                18.1026725415       29.3776692839       86.3661397036
H                17.1536041690       30.5774808584       85.4740163652
H                17.9962891844       31.3513046772       83.2204128633
H                19.4233624804       27.8432404590       85.1902542928
H                18.6894602403       30.4546065702       81.0507143882
H                20.2313525729       26.9651595713       82.9745416413
H                19.5103442767       28.6403614402       79.9905180602
H                28.1851493307       30.9929208718       75.2629133079
H                17.4772253727       48.7898195138       72.4659016796
H                14.4609387900       48.5763384680       68.6866501462
H                11.6603523649       46.8137002604       72.4388063869
H                 8.7163641109       45.2498464950       69.5290002842
H                 7.8393924511       43.5778942439       72.1535034917
H                11.4498605893       37.7582118817       79.0261310057
H                22.6899786789       32.7833485122       83.3719148608
H                24.6524805481       34.4896580716       82.7027335654
H                27.9152609650       33.6654919662       83.5300310794
H                14.9174501444       31.2648845385       74.7235884919
H                12.6816764649       33.9590246348       75.2924305449
H                14.7001479902       36.3913216411       89.3049547158
H                18.4384243929       39.1497993157       87.8302101244
H                11.4068388157       45.1322628996       83.9570239197
H                 9.2370396477       46.4417607770       78.2154834283
H                 9.0389443157       43.5433792987       78.0219951239
H                20.7079721067       30.4199951558       87.2654357358
