 408 
 
N                27.4664435699       30.7701435844       75.9675987101
C                26.9298869600       32.0121731411       76.5296311357
C                26.5975103643       32.9687161239       75.3611512279
O                27.2530993202       33.9512998448       75.0739614469
C                27.8006400209       32.6610842585       77.6383783456
O                28.9155167178       33.3964509868       77.2256071970
H                26.8006397559       30.0193844705       75.8681483020
H                25.9918299161       31.7463322447       77.0252674456
H                27.1604043432       33.3613059007       78.1806733803
H                28.1067351710       31.8594962774       78.3237708752
H                29.4590942481       32.8016269906       76.6657530250
N                25.5444459517       32.5744177483       74.6135077198
C                25.0917321221       33.4904143167       73.5748863344
C                24.7771401976       34.8309256626       74.2722365177
O                24.2116525935       34.8626131829       75.3520549484
C                23.9181797465       32.9303845424       72.7547295399
C                24.4174287842       31.8439143293       71.7996492365
C                22.7901237658       32.4068897427       73.6436176957
H                24.8520373334       31.9430852438       74.9858182715
H                25.9463277314       33.6497971646       72.9070539818
H                23.5271227755       33.7677142184       72.1671312320
H                23.5847521143       31.4411237456       71.2306044919
H                25.1461807836       32.2483919178       71.1027372443
H                24.8809387156       31.0344969607       72.3569971654
H                21.8855688346       32.2866250407       73.0529513428
H                23.0358000404       31.4344194562       74.0639320152
H                22.5767208654       33.1102082178       74.4460747135
N                25.2583763753       35.9168554578       73.6535634706
C                25.4544239125       37.1991494101       74.3195137453
C                24.1121981272       37.7034268669       74.8786193017
O                23.0727223265       37.5824903243       74.2411526888
C                26.0395110033       38.2121613928       73.3187083747
C                27.1564868458       39.1101034355       73.8583286695
C                28.3982950200       38.3470052446       74.3488019188
N                28.4357035180       38.2412267993       75.7999263490
C                28.7201522502       37.1700553702       76.5418748257
N                28.9279181472       35.9753460002       76.0119707930
N                28.7879255990       37.3102650661       77.8724865445
H                25.7379247188       35.7951791778       72.7726987560
H                26.1451021526       37.0299075409       75.1501218185
H                26.4451362042       37.6624883121       72.4668082835
H                25.2319304239       38.8423472198       72.9450481071
H                27.4594395538       39.7558533500       73.0341872905
H                26.7844864434       39.7681047648       74.6423190694
H                28.4277794340       37.3536451995       73.9049969194
H                29.2971504983       38.8834477728       74.0327444987
H                28.3813172212       39.1345470534       76.2725894444
H                28.6857865664       35.7737907350       75.0552198543
H                28.9787149265       35.1430928286       76.5975287391
H                28.8032055657       38.2207200751       78.3018012897
H                29.0720005454       36.5232814094       78.4333453192
N                24.1598125127       38.3428464966       76.0548224332
C                22.9452574051       38.8343881119       76.6851838818
C                21.9976958363       39.4944690429       75.7124065425
O                22.3663967644       40.3362713356       74.8932817797
C                23.4720768064       39.8387420283       77.7106578959
C                24.7060893388       39.1108635610       78.2320726596
C                25.2964465850       38.5021035645       76.9568988466
H                22.4215724642       38.0108269020       77.1899209141
H                23.7666414204       40.7586716970       77.2020651783
H                22.7403885217       40.0550097500       78.4865778930
H                25.4046245814       39.7782463116       78.7295789729
H                24.3985202025       38.3315910802       78.9300280618
H                26.0111704105       39.1984123874       76.5152612309
H                25.7698280268       37.5388082596       77.1588704952
N                20.7213459272       39.1866352093       75.9162548910
C                19.6415970971       39.7412368948       75.1294596407
C                19.4540545992       41.2506896952       75.3489235390
O                18.9191713537       41.9547361080       74.5121165875
C                18.3751663860       38.9364618104       75.4454702014
C                17.1689757763       39.3365055898       74.6479428588
C                16.2270677338       40.1939971695       75.1968863851
C                16.9362291502       38.7915767285       73.3924254390
C                15.0612516450       40.4983242092       74.5204255992
C                15.7642520895       39.0856435816       72.7165940730
C                14.8250518635       39.9373789848       73.2770493152
H                20.4777963424       38.5297537870       76.6697005521
H                19.8858069845       39.6163307769       74.0678255027
H                18.6118249920       37.8864871807       75.2606207110
H                18.1658360747       39.0299218538       76.5154911058
H                16.3840566526       40.5758309287       76.1944207342
H                17.6537880541       38.1031401247       72.9744763035
H                14.3295624473       41.1437901334       74.9787065201
H                15.5605204913       38.6310799476       71.7599899091
H                13.9108646819       40.1618594286       72.7489193861
N                19.9633134401       41.7553840048       76.4887074512
C                20.0624207196       43.1910428381       76.6995588494
C                20.9393813874       43.8708152445       75.6202469262
O                20.6990073185       45.0087129461       75.2543263563
C                20.6629448478       43.5032206254       78.0801598321
C                19.6759213455       43.4361594988       79.2530222006
C                18.7658411245       44.6675040427       79.3278408105
C                17.9206298549       44.6514921440       80.6013649543
N                17.1941424996       45.9291546595       80.7918109066
H                20.3058224295       41.1382415225       77.2109287562
H                19.0694803237       43.6451092394       76.6048117335
H                21.4773048202       42.7988194482       78.2609023703
H                21.0975875740       44.5034856312       78.0488726438
H                19.0763383449       42.5274009044       79.2018463734
H                20.2579307037       43.3793440233       80.1737486492
H                19.3962135533       45.5575739616       79.3323631218
H                18.1048004731       44.6981356974       78.4626990533
H                17.1874426336       43.8445039233       80.5638969702
H                18.5496492876       44.4894088745       81.4771681648
H                16.4513873600       45.8665673156       81.5906200447
H                17.8304534734       46.6985343217       81.0164566923
H                16.6253554095       46.1783195939       79.9738919870
N                21.9962357919       43.1635610505       75.1959424446
C                22.9415368842       43.6597083685       74.2169927887
C                22.5306202521       43.3468123502       72.7715464152
O                22.8417692964       44.0930827571       71.8544356902
C                24.3362479153       43.0661717598       74.4409064102
C                25.0297044500       43.6258262953       75.6850995793
C                26.4224069065       43.0290068705       75.8043163991
O                26.6228114958       41.8242303888       75.8332910121
N                27.4195187204       43.9220545215       75.8629766064
H                22.1012524874       42.1863690009       75.4480493469
H                22.9698703133       44.7519210932       74.3017780690
H                24.2484853770       41.9813365065       74.5281747875
H                24.9435914734       43.2945971769       73.5632393729
H                25.0855273885       44.7123604226       75.6309814434
H                24.4621023516       43.3525075376       76.5771113398
H                27.2509671129       44.9126065189       75.8518144711
H                28.3711138377       43.6016113647       75.9503917438
N                21.8141585007       42.2266094015       72.6026212245
C                21.3441635417       41.7847544867       71.3047284989
C                20.3187201051       42.7330733573       70.6562842407
O                19.7941737016       42.3890090768       69.6013449017
C                20.6471607962       40.4196029356       71.4199296629
C                21.5813425217       39.2147151467       71.5694492370
C                20.7971875911       37.8887416479       71.4451455822
N                21.2762483973       37.0150111160       70.3776710081
C                21.1081109358       37.1620940061       69.0620183160
N                21.4410591739       36.1702548038       68.2373797227
N                20.5719662954       38.2689965858       68.5485547823
H                21.7363099212       41.5689400954       73.3709710986
H                22.1944530863       41.7335085467       70.6106869737
H                19.9565508981       40.4776521944       72.2648316355
H                20.0469643971       40.3066904880       70.5160966111
H                22.3578117044       39.2523978789       70.8042973705
H                22.0880013306       39.2468372532       72.5335819616
H                20.9019662010       37.3274489449       72.3711661547
H                19.7360805434       38.0923030877       71.2807184334
H                21.7625226918       36.1862858418       70.6827373379
H                21.7648297183       35.2825578818       68.5847181852
H                21.3332071853       36.2654156342       67.2398613178
H                20.5476387760       39.1107768761       69.1018484409
H                20.5224750294       38.3648393866       67.5449369627
N                19.9969967302       43.8463404953       71.3070585534
C                18.9015516087       44.7021946666       70.8957448697
C                19.0804319555       46.1356936896       71.4158979374
O                18.6947430655       46.4326022274       72.5465510362
C                17.5966535085       44.2043957019       71.5534948353
C                17.1520433872       42.7899624886       71.1987896459
C                16.4355089907       42.7012962236       69.8530440620
C                16.2666536824       41.2467738573       69.4339187711
N                17.4735920908       40.8097707037       68.6600766430
H                20.3884230067       44.0347843350       72.2170002402
H                18.8504610539       44.6855832775       69.8042497353
H                17.7787282736       44.2362084217       72.6270961595
H                16.8152365558       44.9195455298       71.2957839171
H                18.0145671152       42.1299849735       71.2329697936
H                16.4737471216       42.4434226477       71.9801012592
H                15.4560384501       43.1710493937       69.9282622932
H                16.9942330547       43.2439279785       69.0912132789
H                16.1593477892       40.6297117166       70.3259213058
H                15.3724251059       41.1197689585       68.8247660102
H                17.3722613187       41.0946142226       67.6763664872
H                18.3256878904       41.2922132922       69.0264437934
H                17.5736975979       39.7874678906       68.6980267203
N                19.5305129493       47.0980309470       70.6047576395
C                19.4062799696       48.4561330596       71.1114129749
C                17.9604143106       48.5668846890       71.6244838000
O                17.0534728424       48.0605467510       70.9718776622
C                19.6476215022       49.4916326042       70.0065408404
O                20.9592681954       49.3279197194       69.5293592216
H                19.9214103369       46.9457662137       69.6887802300
H                20.1221992888       48.6193597104       71.9247466269
H                18.9184822861       49.3472873661       69.1978155842
H                19.4990903487       50.4903663959       70.4370479754
H                21.1909180695       50.0642520350       68.9523877636
N                15.0165995083       48.3515634106       69.1473605684
C                14.7936988340       47.1268661921       68.3964914305
C                13.7765861803       46.2348857501       69.1188720249
O                12.8304136645       45.7039543829       68.5581784339
C                16.1113532928       46.3520434129       68.1629111536
C                17.2834564597       47.2292622652       67.6892099943
C                15.8581724917       45.2092690215       67.1805427525
C                17.0791329071       47.9449013691       66.3594782947
H                15.9240581819       48.4618057165       69.5896593124
H                14.3358377274       47.3994850456       67.4378028270
H                16.4063946550       45.9393485026       69.1336528626
H                17.5011276226       47.9672342165       68.4602434032
H                18.1561594470       46.5805196047       67.6027452522
H                16.7885768316       44.6892390532       66.9750082912
H                15.1233776245       44.5156900440       67.5785406983
H                15.4671502600       45.5964345134       66.2437009502
H                17.9443753727       48.5646020522       66.1358231214
H                16.9565630927       47.2374890727       65.5447611210
H                16.2024074755       48.5879692461       66.3895057655
N                14.0737806240       45.9948589733       70.4142668851
C                13.2140798532       45.1426078051       71.2086748081
C                11.9434539817       45.8367642811       71.6901187384
O                10.9065662713       45.2073941498       71.8800393058
C                13.9744774326       44.5245361837       72.3907890602
C                14.2390275146       45.4751271429       73.5687394021
C                15.6773644283       45.3404967225       74.0681126776
N                15.8202359625       45.9650165369       75.3662978268
C                16.9714118132       46.2591523470       75.9501548382
N                18.1327431990       46.2047449647       75.3152623540
N                16.9460509412       46.5612493393       77.2657581997
H                14.7222233040       46.6031140469       70.8985924843
H                12.8829572570       44.3332066843       70.5439544517
H                13.3927267937       43.6689036504       72.7295546039
H                14.9200089308       44.1524189709       72.0049590858
H                14.0693253132       46.5107157510       73.2792171288
H                13.5498206740       45.2593071560       74.3878864109
H                15.9450631898       44.2804309170       74.1474720479
H                16.3454464943       45.8386998971       73.3626546588
H                14.9939608137       45.9882606678       75.9691989005
H                18.2130308330       46.0860999431       74.3101822872
H                19.0003416035       46.3798813536       75.7996657790
H                16.0270664399       46.6400958755       77.6857812415
H                17.6798910846       47.1393042492       77.6450663770
N                 9.2318654418       44.8055590731       69.6754804708
C                 8.8477686533       43.4153610303       69.8702517916
C                 7.8968020505       43.2669313845       71.0590276066
O                 6.9406523006       42.5019567370       71.0392863407
C                10.1112542990       42.5666936738       70.0516802406
C                 9.8600891726       41.0815238262       69.8372219413
C                11.1693041499       40.2857053372       69.5104233556
O                10.9842945358       39.0924031300       69.1744636843
O                12.2608781032       40.8589414858       69.5918097461
H                10.2183377846       44.9929687521       69.5700728870
H                 8.2981334301       43.0801180649       68.9779347415
H                10.8461740069       42.8997201189       69.3122880008
H                10.5304277320       42.7517910275       71.0415264044
H                 9.3818226592       40.6418698776       70.7141534122
H                 9.1862727569       40.9297952652       68.9903475425
N                11.8901033474       37.1459108971       79.6114940845
C                13.1844250952       36.8076880059       79.0567720806
C                13.9538466965       36.0347716517       80.1335850770
O                14.1371830908       36.5276462834       81.2446864556
C                13.9592665414       38.0704960406       78.6551164189
C                15.4068119275       37.7200022809       78.3423238605
C                13.2953730085       38.7225914631       77.4530783801
H                11.8998460099       37.6875341313       80.4670043664
H                13.0190336532       36.1778030764       78.1809420593
H                13.9375964960       38.7706884889       79.5001235503
H                15.9271399394       38.5867805796       77.9452023080
H                15.9312244513       37.4000330995       79.2388107451
H                15.4500489396       36.9195868781       77.6113194477
H                13.7269435771       39.7015630019       77.2610055999
H                13.4358627993       38.1064421267       76.5689388023
H                12.2288884298       38.8513540270       77.6202590695
N                17.5344559307       34.1477643192       80.8196076194
C                18.9136936848       34.0888715745       80.3842163440
C                19.7297711032       33.3285103749       81.4259168227
O                19.5993701507       33.5444035619       82.6235419568
C                19.5522619259       35.4874492817       80.2417125893
C                18.6225533348       36.5115493658       79.6000885778
C                19.4353209525       37.6992350906       78.9968688929
O                20.1519197971       37.4127302834       78.0090688368
O                19.3086024380       38.8241537803       79.5064728019
H                17.3519309605       34.5951610174       81.7104602799
H                18.9091811657       33.5829039898       79.4137185550
H                19.8506195418       35.8519003129       81.2280873361
H                20.4542348466       35.4007661629       79.6309312999
H                18.0788116107       36.0536308428       78.7698667532
H                17.9066728227       36.8978430059       80.3277421549
N                25.6403522884       34.5935293205       83.1096198896
C                26.7586048342       34.5082645613       82.1811907846
C                27.8453566035       33.5373253405       82.6595197532
O                28.4192409692       32.8097302704       81.8671809117
C                27.2581182176       35.9551793838       82.0321132661
C                26.5497966574       36.7274991482       83.1473525653
C                25.2362132370       35.9743135424       83.3105963110
H                26.4100789128       34.1038375239       81.2237884701
H                28.3416992230       36.0124906707       82.1082368982
H                26.9682782212       36.3433384663       81.0576859645
H                27.1208896107       36.6777540715       84.0739272149
H                26.3948042585       37.7708581418       82.8876247313
H                24.8019507230       36.1294850234       84.2929489903
H                24.5115424013       36.2535029469       82.5388534753
N                14.5151804583       32.0376487276       74.4998149109
C                14.8505650088       33.0734468893       75.4492579356
C                13.6586239956       33.9272415429       75.8800805366
O                13.6785312306       34.5709603263       76.9246789608
C                15.9673562689       33.9413311006       74.8258753144
O                16.9889470208       33.0333016588       74.4746730128
C                16.4490803721       35.0387003313       75.7538642487
H                14.5305146510       32.3320110266       73.5311486728
H                15.2651895865       32.5923154119       76.3438750557
H                15.5734164198       34.4091672133       73.9054108554
H                17.8402906794       33.4806107810       74.5014084803
H                17.3080768650       35.5542308834       75.3285047328
H                15.6573369241       35.7667121877       75.9008897374
H                16.7245889134       34.6284747709       76.7242275485
N                12.6437618328       33.9698248159       75.0115512584
C                11.4412075008       34.7494592406       75.2397906055
C                10.2682516846       33.7761926275       75.3793543583
O                10.1543638957       32.8574714336       74.5765117550
C                11.2175557866       35.7610744877       74.0859391176
C                11.6900221793       35.2414633682       72.7283782352
C                11.2340472005       36.1594165605       71.5885415632
C                11.6415600932       35.6082597144       70.2162767315
N                10.9937311953       36.3725458692       69.1161862014
H                12.5884595592       33.2582785823       74.2953273335
H                11.5650147008       35.2934878450       76.1786762177
H                10.1553818784       36.0098934607       74.0537126779
H                11.7514623956       36.6806885290       74.3291372532
H                12.7785272079       35.1877250818       72.7323678097
H                11.2879657188       34.2378478023       72.5842622200
H                10.1519563227       36.2771178026       71.6422651331
H                11.6672615378       37.1497878758       71.7264031406
H                12.7221238500       35.6990287568       70.1009004080
H                11.3698681818       34.5553442737       70.1358054069
H                11.3427357054       36.0894804859       68.1929342076
H                 9.9696290997       36.3134111369       69.1481483586
H                11.1896966943       37.4110936498       69.2089691422
N                10.8519104213       45.5421218481       83.2907309769
C                11.9383678442       46.3939906436       82.8604739977
C                11.4160901150       47.7290132145       82.2931541768
O                10.2424623515       48.0612255337       82.3330686353
C                12.7639702345       45.6380462787       81.8199896057
C                14.1955330375       46.1528658138       81.5742798722
O                15.0863283730       45.7593051640       82.3733114357
O                14.4325872486       46.8569245549       80.5749374733
H                10.5223133978       44.8899711418       82.5927009709
H                12.5472954160       46.6420704298       83.7460772692
H                12.8600978754       44.6067538283       82.1664027086
H                12.2175917295       45.6418734432       80.8747445809
N                12.3969834167       48.4816160781       81.7702716052
C                12.1857056805       49.7609150565       81.1220599832
C                11.3394566068       49.4952108957       79.8777782846
O                10.3157589670       50.1052526770       79.6199984524
C                13.5009355961       50.4572587512       80.7180708527
C                14.7085358509       50.1052488608       81.5857825777
C                14.4961468115       50.1953340940       83.1385752793
O                13.6419317212       50.9877992759       83.5798149181
O                15.2506790023       49.4620111036       83.8133317739
H                13.3466674289       48.1600271831       81.8266254464
H                11.6132062018       50.4031187227       81.8033038405
H                13.7349979551       50.1946508830       79.6837156666
H                13.3212005657       51.5310046720       80.7698420643
H                15.0588141412       49.0936677547       81.3718910474
H                15.5229681813       50.7946594536       81.3540435791
N                 9.6267503347       43.7033653739       78.7476985203
C                10.0084913205       42.3922616601       79.2301285359
C                10.2196731085       42.4257170357       80.7493916892
O                10.4857685673       43.4537883148       81.3570362605
C                11.3219314407       41.9532644805       78.5786608087
C                11.1853994180       41.6224013018       77.1161481724
C                10.3260965343       40.6172991786       76.6897917108
C                11.9672272523       42.2757641088       76.1730101390
C                10.2506360019       40.2738228484       75.3501120669
C                11.8825904813       41.9389411108       74.8331278290
C                11.0272933534       40.9349699730       74.4158827750
H                10.3905192936       44.3514165594       78.5598311037
H                 9.1959701738       41.6923697708       79.0069632317
H                12.0380323894       42.7657018666       78.7044894572
H                11.6992254275       41.0767485818       79.1134400915
H                 9.7355137132       40.0869929220       77.4233849372
H                12.6365782478       43.0601099803       76.4969948231
H                 9.5987870332       39.4777171701       75.0314830366
H                12.4825668174       42.4666756578       74.1077677094
H                10.9660287550       40.6802044459       73.3685508090
N                13.0300035325       40.3940395235       82.8897279173
C                14.2186569080       39.5901696864       82.6971167443
C                14.5227468384       38.7828563268       83.9729209005
O                14.4326744290       39.2830993302       85.0912246232
C                15.4371805331       40.4744259648       82.3935074792
C                15.4768026017       41.0782154895       81.0131440754
C                14.5962574604       42.0843142011       80.6190620420
C                16.4819864719       40.7019443130       80.1312007367
C                14.7508357093       42.7412141177       79.4144702217
C                16.6329735255       41.3377985126       78.9138947487
C                15.7874275579       42.3817766157       78.5539619689
O                15.9601412363       43.0834618316       77.4022574116
H                13.1306827720       41.2279570102       83.4479844757
H                14.0166121311       38.8951516528       81.8770084685
H                15.4570702857       41.2737703299       83.1397416761
H                16.3333144750       39.8657524137       82.5270144514
H                13.7932040181       42.3962174255       81.2713877850
H                17.1837840018       39.9227528873       80.3902913139
H                14.1024311686       43.5607653628       79.1426726739
H                17.4356829479       41.0291549259       78.2575102586
H                16.6827568921       42.6993961068       76.8831215833
H                27.7954913112       30.9300154805       75.1453040179
H                17.7690172448       49.0472069378       72.4804380631
H                14.9267068554       49.0602062232       68.5998711392
H                11.9449247385       46.8227336463       71.8570386227
H                 8.8419712494       45.1232246323       68.9291085050
H                 8.0457337019       43.8049786832       71.8886808278
H                11.4251497162       37.6327257504       79.0141420782
H                14.3111662446       35.1221737548       79.9348696545
H                17.0480219449       34.6045758558       80.2156993503
H                20.3895683654       32.6353913678       81.1356520904
H                24.8836643036       34.3417242034       82.6924658692
H                28.0886508184       33.4972184266       83.6286427384
H                15.1020982958       31.3595290937       74.5751887412
H                 9.6059897719       33.8941475036       76.1192839537
H                11.1160682219       45.0525713467       83.9982343076
H                11.6173272042       48.7901710993       79.2253161658
H                 9.1756826006       43.6190057681       77.9734754542
H                10.1411975832       41.5841161922       81.2837601128
H                12.7224760749       40.6718224176       82.0908139504
H                14.8019584075       37.8251105423       83.9038998030
