 168 
 
N                -5.4033974824       91.3807638721        8.5198324362
C                -5.7777853157       91.4780796466        7.1441352073
C                -6.3181352908       90.1599255989        6.5927479448
O                -6.5583715428       90.0310913686        5.4026573552
C                -4.5986117719       92.0193557560        6.3288297999
C                -5.1092322786       92.9637791961        5.2368950595
C                -5.7709556174       94.2337492599        5.7774962355
O                -6.9771482945       94.4300884946        5.7125732871
N                -4.9272432537       95.1499501650        6.2984316359
H                -4.4166304464       91.2905759779        8.7355534749
H                -6.6219880086       92.1833959199        7.0757844998
H                -3.9235583653       92.5386077761        7.0095465643
H                -4.0660669182       91.1880684663        5.8690224895
H                -4.2841357744       93.2530993845        4.5845023688
H                -5.8576155164       92.4332955758        4.6467884679
H                -3.9434902387       94.9682737067        6.3926913355
H                -5.3065297062       96.0019611729        6.6780526699
N                -9.8296562381       89.6720076156        7.6148268979
C               -10.4575572968       90.0896709382        6.3729009065
C               -11.3379964353       89.0212161165        5.6641347530
O               -12.4920061977       89.3629722111        5.4035765705
C                -9.4515441377       90.8181804791        5.4360391082
C                -9.0485781884       90.1312624738        4.1266383722
C                -9.4580196661       90.8853206086        2.8312465369
O                -9.0186341207       92.0538117676        2.7036318246
O               -10.1187456549       90.2759373962        1.9579335728
H                -8.9706080509       90.1280033206        7.8956708777
H               -11.2274055389       90.8342804430        6.6449216978
H                -9.8787005001       91.7927630162        5.1839342147
H                -8.5604572099       91.0212472267        6.0254370916
H                -7.9647408840       90.0946055788        4.0721054831
H                -9.4255394797       89.1147662214        4.0622885175
N               -10.6843980492       93.9063734761       -1.7174341596
C                -9.5498463907       94.1676847237       -0.7907229418
C                -8.6216619970       95.1785808766       -1.5299796915
O                -8.6618389054       95.1570989279       -2.7559957836
C                -8.8123257983       92.8104672516       -0.5570555561
O                -7.7856144284       92.9382601465        0.3768675819
H               -11.0183822274       92.9337527513       -1.6537275864
H               -11.4787788001       94.5401649626       -1.5284943357
H               -10.2997990593       94.1275849253       -2.6740736572
H                -9.8812270399       94.5501459980        0.1760773692
H                -9.5384566190       92.0592506168       -0.2220080472
H                -8.3501229461       92.4989701131       -1.4957752104
H                -8.1581720113       92.7478043941        1.2699423781
N                -7.8514907131       95.9979555720       -0.7958724206
C                -6.7258750344       96.6410713174       -1.4849592895
C                -5.8853040135       95.4699541230       -2.1211383248
O                -5.7183984452       95.2601521758       -3.3091312738
C                -5.7424879844       97.5018305076       -0.6414295920
C                -6.2090572056       98.3748903204        0.5213098042
C                -4.8646181833       98.7949381376        1.2292311761
O                -4.3814297782       97.9591551540        2.0267139129
O                -4.3642803810       99.8822842803        0.8933609409
H                -7.7933222971       95.8788795449        0.2062368494
H                -7.1456533375       97.2476359190       -2.2934169357
H                -4.9704440313       96.8531128269       -0.2176999674
H                -5.2261546162       98.1518655470       -1.3547375306
H                -6.7462765768       99.2626211567        0.1940506598
H                -6.8020746747       97.8073400721        1.2370904793
N                -5.4108581983       94.6769896091       -1.1374573430
C                -4.3448098714       93.6981532893       -1.2540977770
C                -4.8724176039       92.3355564420       -1.7206073146
O                -4.8644093877       92.0425796137       -2.9104546537
C                -3.6353313340       93.6737850507        0.0927630517
H                -5.6503067532       94.9118244701       -0.1845739342
H                -3.6716744531       94.0306841053       -2.0550660155
H                -2.8516788618       92.9208887179        0.1020182747
H                -3.1839174754       94.6432431695        0.2925215448
H                -4.3417307423       93.4592648451        0.8926831726
N                -5.3391807958       91.4643900585       -0.8304346329
C                -5.5437849692       90.0996367164       -1.2522695782
C                -6.2204342182       89.9687536596       -2.6104100121
O                -5.9815466193       88.9753937459       -3.2883403846
C                -6.3448108970       89.2036754996       -0.2836492795
C                -5.8175295582       88.9697339984        1.1582763279
C                -6.6414540803       87.8301265802        1.7495053197
C                -4.3449263973       88.6158714076        1.3274246001
H                -5.5215047797       91.7097091828        0.1310788584
H                -4.5619748203       89.6239384920       -1.3719634238
H                -7.3552433461       89.6037061211       -0.1776442568
H                -6.4165111143       88.2336515590       -0.7796020289
H                -6.0201257219       89.8742786456        1.7427486695
H                -6.3972811941       87.6930988753        2.7990417566
H                -7.7046428597       88.0489203184        1.6794707477
H                -6.4333092444       86.9039578832        1.2204099603
H                -4.1355462753       88.4709335712        2.3830992634
H                -4.1054615510       87.6930367641        0.8033609087
H                -3.6938355367       89.4061096945        0.9603510922
N                -7.2068738413       90.8068548180       -2.9898166071
C                -8.0465931925       90.3925108606       -4.1079457304
C                -7.2994194434       90.3253342380       -5.4635795449
O                -7.7739407093       89.7802413633       -6.4476577885
C                -9.3400798170       91.2342693329       -4.1068190882
C               -10.6185705794       90.4582552786       -4.5076412584
C               -11.3445794809       89.7665449978       -3.3338134146
C               -12.3462679430       88.6989290181       -3.7897025963
N               -13.5249228379       89.2643540545       -4.5127132969
H                -7.1554668100       91.7878134071       -2.7649956543
H                -8.3011579039       89.3439187523       -3.9034196714
H                -9.4613902349       91.6163501651       -3.0953649334
H                -9.2033348071       92.0755282755       -4.7866885320
H               -11.2857095137       91.1833378020       -4.9733880699
H               -10.3353866109       89.7261470480       -5.2640816297
H               -10.6043735167       89.2593178554       -2.7142796186
H               -11.8421210587       90.5035867749       -2.7063754159
H               -11.8334540755       88.0042548812       -4.4574838973
H               -12.7036452225       88.1491200827       -2.9190470253
H               -14.1504655653       88.5105174687       -4.8229882215
H               -14.0485905961       89.9056743399       -3.8987639742
H               -13.2083866051       89.7850682849       -5.3447469515
N                -6.0840244467       90.8620461392       -5.4086601953
C                -5.0875921871       90.8998176325       -6.4566720854
C                -4.3417749238       89.5339624207       -6.6127555367
O                -3.9868746600       89.0241956303       -7.6725613885
C                -4.1267211358       92.1081649043       -6.1031295797
C                -3.0164225881       91.7155078253       -5.0902841795
C                -4.9713258586       93.3195535666       -5.6372774719
C                -1.9897037365       92.7831799419       -4.7185812237
H                -5.7731770893       91.3014240775       -4.5526477319
H                -5.5734528942       91.1008245169       -7.4184086818
H                -3.6269619496       92.3806703591       -7.0406497400
H                -3.5156596235       91.4227453495       -4.1799173434
H                -2.4755713920       90.8589756068       -5.4950222394
H                -4.3976155838       94.2304086106       -5.7823072759
H                -5.8736435086       93.3871110857       -6.2380620849
H                -5.2210857079       93.2466998979       -4.5883994072
H                -1.2505011769       92.3459536496       -4.0549679981
H                -1.4767286282       93.1588899379       -5.6013191198
H                -2.4659800984       93.6173346689       -4.2127255696
N                -4.1109727821       88.9502466033       -5.4335889396
C                -3.4655911077       87.6836837455       -5.2415859370
C                -4.4381982015       86.5188175664       -5.5079945653
O                -4.3065323265       85.4049364510       -5.0307979924
C                -3.0395082447       87.5520539185       -3.7722584506
C                -1.8376990163       88.3568379688       -3.2432775212
C                -2.2273628371       89.6964496522       -2.6094550168
C                -1.1079901776       87.5263683908       -2.1643558077
H                -4.6504422250       89.2527115514       -4.6277703367
H                -2.6180123830       87.5938147936       -5.9309628053
H                -3.9221636567       87.7998961048       -3.1832554508
H                -2.8256819029       86.4920704250       -3.6281848908
H                -1.1447807217       88.5295691782       -4.0714944527
H                -1.4175730585       90.4112091043       -2.7089819941
H                -3.1155001802       90.0970444784       -3.0707136237
H                -2.4184288464       89.5530586036       -1.5479352640
H                -0.2545485900       88.0887854281       -1.7975848889
H                -1.7713473343       87.3078106955       -1.3331451108
H                -0.7516534302       86.5824041196       -2.5692637599
N                -5.5245641591       86.8035608044       -6.2454897003
C                -6.3620275051       85.7024098529       -6.6386678012
C                -5.9157853257       85.2048645180       -8.0052495819
O                -6.4002301158       84.1984971141       -8.5060907870
C                -7.8808203759       85.9915188724       -6.5555482776
C                -8.5823407995       84.7129608971       -6.0963728106
O                -9.1881004385       83.9645917320       -6.8442148102
N                -8.4285722817       84.4930772694       -4.7770108629
H                -5.6744721980       87.6972903156       -6.6855787272
H                -6.1177096023       84.8874161488       -5.9422652973
H                -8.0512763701       86.7915673297       -5.8367284012
H                -8.2662027366       86.2859849281       -7.5296626287
H                -8.8576503056       83.6846440121       -4.3536776254
H                -7.8687597287       85.1097676237       -4.2132288989
H                -5.6735849280       92.1192025981        8.9576760066
H                -6.4793825287       89.3888910225        7.2087877247
H               -10.3978496811       89.8082025186        8.2993757710
H               -10.9567781235       88.1222074974        5.4485979780
H                -5.2129431241       85.7025269497       -8.5135260261
