 325 
 
N                34.3336551384       24.0589395887       83.4995248807
C                34.5019216707       24.7772915890       82.2566574229
C                33.4270517154       25.8269859189       82.0156145785
O                32.4960645162       25.9562876766       82.7824633033
C                34.3429605573       23.7137317870       81.1827466293
C                35.0931087986       24.0616254071       79.9050431841
C                32.8417600451       23.3905275708       81.1155714445
C                36.5150667733       24.4932223614       80.2620222428
H                33.8676866691       23.1648696081       83.4484700905
H                35.4780641473       25.2616220537       82.3005266321
H                34.8465757298       22.8239676431       81.5674968245
H                35.1490753275       23.1601463663       79.2979726416
H                34.5869996792       24.8077768777       79.2912159898
H                32.7026994171       22.3166425969       81.0507537067
H                32.3495483753       23.7224122341       82.0258373197
H                32.3528184731       23.9064102315       80.3006799355
H                37.1555450279       24.4252745923       79.3842621027
H                36.5566197958       25.5193280549       80.6148005869
H                36.9162906109       23.8343822257       81.0268298159
N                33.5305606965       26.5941042854       80.9084713122
C                32.3976317439       27.4099828385       80.5247981438
C                31.3611792610       26.5993696822       79.7203646444
O                31.1643395880       25.4135110104       79.9070652604
H                34.2295887448       26.3914778045       80.2138262323
H                31.9190453162       27.7311688285       81.4548147358
H                32.7451100396       28.2727138313       79.9579022578
N                30.7029930557       27.3360443718       78.8068692294
C                29.9277525219       26.8575532512       77.6695296274
C                29.4904993464       28.1455664146       76.9539884018
O                29.3419186476       29.1836372992       77.5952568188
C                28.7269096383       25.9493841000       78.0397380480
O                28.6115996888       24.9204781391       77.0754607807
H                30.8139643225       28.3436241171       78.8192255800
H                30.5827563679       26.2635911783       77.0205489788
H                28.9269425779       25.5325982959       79.0308635030
H                27.8019183887       26.5388601920       78.0794036747
H                28.0881414885       24.1964511646       77.4337980994
N                29.3425549415       28.0772986928       75.6411503504
C                28.9863338108       29.2341067137       74.8328339991
C                28.8993265130       30.5183105132       75.6367165767
O                29.9022518272       31.1866723482       75.8247578771
C                27.7233797314       28.7935342346       74.0419202571
C                27.4724997470       27.3585096919       74.5216037962
C                28.8838441281       26.9100508608       74.9185682291
H                29.8248429829       29.3985856662       74.1439143137
H                26.8581380862       29.4393391576       74.1516635586
H                27.9645308777       28.7897511010       72.9795409798
H                26.8299039512       27.3317086943       75.4002647829
H                27.0408903281       26.7282398828       73.7498720699
H                28.9016745783       26.0039736105       75.5082799589
H                29.5109570883       26.7719628676       74.0336184038
N                27.6306810649       30.8132943223       75.9828121142
C                27.0253570212       32.0226968434       76.5385294206
C                26.7178303203       32.9616618693       75.3456766321
O                27.4488195518       33.8559565584       74.9585077773
C                27.8163527058       32.6470897863       77.7173130184
O                29.0196451734       33.2922584702       77.4044381155
H                26.9642315688       30.0753088751       75.8220426054
H                26.0660653866       31.7128313937       76.9633423279
H                27.1776601934       33.3979746435       78.1868842950
H                28.0128092579       31.8436328383       78.4389428205
H                29.5886742154       32.6604229277       76.9179453594
N                25.5849834021       32.6307140549       74.6904436978
C                25.1427845977       33.5231416682       73.6241257778
C                24.8450792946       34.8807649628       74.2845727256
O                24.0095862884       34.9674218587       75.1655704137
C                23.9070152380       33.0063162315       72.8548453532
C                24.2871589391       31.9765847212       71.7792343427
C                22.8407652240       32.4565824753       73.8039786462
H                24.8585146002       32.0894175891       75.1343354577
H                25.9794491642       33.6304699719       72.9256233982
H                23.4863365572       33.8848852031       72.3523588027
H                23.3907282046       31.6368504513       71.2687476780
H                24.9524057704       32.4187029165       71.0428199767
H                24.7796747344       31.1179987450       72.2273506578
H                21.8946735459       32.3776957880       73.2730464516
H                23.0981803225       31.4603848728       74.1558203515
H                22.6945993905       33.1313015357       74.6435564568
N                25.6142788008       35.8944811618       73.8891761633
C                25.6564780823       37.2286836035       74.4754477704
C                24.2439836503       37.7249760855       74.8957354644
O                23.2716740862       37.5335611562       74.1767219729
C                26.2873034204       38.2001293792       73.4464224461
C                27.4919117610       39.0127127018       73.9422923521
C                28.6493427005       38.1843246410       74.5257724183
N                28.5525676390       38.0572919981       75.9776200122
C                28.7900279108       36.9849742627       76.7383977798
N                29.1146628576       35.8114170016       76.2232109726
N                28.6706360899       37.0975137558       78.0705379779
H                26.3262040062       35.7079043050       73.1978426634
H                26.2798943906       37.1689361308       75.3702948277
H                26.6042560527       37.6197731215       72.5790129876
H                25.5211454025       38.8943573270       73.1002103001
H                27.8696328867       39.5603131447       73.0792720450
H                27.1734144162       39.7611006789       74.6690402784
H                28.6717926648       37.1986156074       74.0653596038
H                29.5921053663       38.6902952531       74.2976020645
H                28.4117359514       38.9426190122       76.4479690707
H                29.0148051056       35.6293733280       75.2371660556
H                29.1263186437       34.9678289411       76.7994238199
H                28.6208922754       38.0032818493       78.5082985304
H                28.9525810586       36.3195759854       78.6457975941
N                24.1900848996       38.4477698446       76.0383148922
C                22.9487904872       38.9402737294       76.6151974154
C                21.9798924141       39.5433306020       75.6468453046
O                22.3188681424       40.2816165719       74.7250459198
C                23.3926925220       40.0637906335       77.5593204652
C                24.6709119773       39.4781656523       78.1461149389
C                25.3027878928       38.7826256403       76.9382074862
H                22.4457046945       38.1393434544       77.1741211985
H                23.6255054450       40.9550295772       76.9750475203
H                22.6337511053       40.2884533395       78.3060279674
H                25.3230356710       40.2419100488       78.5611432910
H                24.4138906589       38.7635655010       78.9281080504
H                25.9717612116       39.4827181812       76.4335131060
H                25.8369362208       37.8823136883       77.2458220012
N                20.4741286990       32.2629216540       81.0155223626
C                21.4175727292       31.6469810249       81.9507820471
C                22.3515504315       32.7545476880       82.4233796338
O                22.7331094505       33.6448709640       81.6779859633
C                22.2054664632       30.5246150395       81.2689790645
C                23.2927622759       29.9502143627       82.1502354999
C                23.8332638994       28.5977753555       81.6779327322
N                24.5156035576       28.6102479923       80.4046269322
C                25.6628723668       29.2342577235       80.1118830860
N                26.2556057485       30.0439483655       80.9816966702
N                26.2151486111       29.0791020685       78.8996979389
H                20.6249972032       32.0859005786       80.0325637647
H                20.8607236317       31.2607891355       82.8088047126
H                21.5161903527       29.7317442079       80.9915697204
H                22.6554400394       30.9450091808       80.3655662431
H                24.0750097911       30.6995675407       82.2685742791
H                22.8689190407       29.7790259174       83.1447074681
H                24.5169717112       28.2017136620       82.4313972195
H                23.0002624108       27.8985904759       81.5869882852
H                24.1743647571       27.9265202075       79.7452041948
H                25.9449722432       30.1419343194       81.9318391973
H                27.1343423624       30.4909370208       80.7695812884
H                25.7620939612       28.5354334647       78.1841143776
H                27.0912662383       29.5296486185       78.6741717065
N                25.3744260189       34.7308104562       83.1140868668
C                26.4974967005       34.8331084510       82.1905294709
C                27.6112573118       33.8295482178       82.5252451067
O                28.1817364138       33.2393144284       81.6255770293
C                26.9622863605       36.2965236599       82.2925614858
C                26.1399056493       36.9036241802       83.4335339496
C                24.8723479564       36.0629296669       83.4431066932
H                26.1605523693       34.5865886004       81.1765390640
H                28.0300533649       36.3575983195       82.4877587423
H                26.7534881463       36.8143003733       81.3581746019
H                26.6486977703       36.7943273593       84.3915727918
H                25.9274608830       37.9561069609       83.2706620051
H                24.3832564733       36.1016578217       84.4099095770
H                24.1691498140       36.3811175056       82.6658894627
N                28.2214955759       27.4892326117       84.8451583678
C                29.1737077780       26.5342656026       84.3364147422
C                28.7694276695       25.0689817460       84.4821604212
O                29.4680782718       24.1930426126       83.9924890379
C                30.6189559713       26.6627730583       84.9507056890
O                30.8473420333       25.8117419997       86.0640227873
C                30.9905790128       28.1183050810       85.2135371115
H                27.9228103554       27.3908189952       85.8045861173
H                29.2678840488       26.7706286407       83.2716109485
H                31.2995165308       26.2468695168       84.2097003244
H                30.5148723835       26.2395751700       86.8646064675
H                32.0465584540       28.1817083594       85.4701347909
H                30.8105097619       28.7240088514       84.3347921137
H                30.4141380660       28.5301576119       86.0394619652
N                23.2759818176       23.7282041751       81.3033380690
C                23.1065625096       24.1174242389       79.8983700231
C                22.4025362394       25.4677902299       79.7642740753
O                21.9750566187       26.1136882475       80.7067597849
C                22.2042283047       23.0389815897       79.2729830396
C                21.4085276770       22.5410698443       80.4939578131
C                22.3804652660       22.6470530434       81.6822043532
H                24.1010018582       24.1822877879       79.4498271202
H                21.5564547345       23.4466095358       78.5025896329
H                22.8100822132       22.2342555698       78.8615766112
H                20.5594724081       23.2009195739       80.6734568896
H                21.0521017857       21.5242972798       80.3647139410
H                21.8236724314       22.8705963180       82.5897748762
H                22.9665006951       21.7334062871       81.8161641102
N                22.2372420337       25.8592448131       78.4866623229
C                21.4767618311       27.0633396612       78.1858834091
C                20.2036673556       26.5763812672       77.4891905602
O                19.9970602393       25.3963084172       77.2412905008
C                22.4197528960       27.9516527215       77.3474521876
C                23.6049834293       27.0095055708       77.0552644350
C                23.0422169652       25.5951778470       77.3191613773
H                21.1833385922       27.5087879279       79.1388603001
H                21.9318226419       28.2518485443       76.4213302662
H                22.7140260990       28.8411508003       77.8980803948
H                23.9698455405       27.1085216037       76.0357695953
H                24.4242412071       27.1686061103       77.7539863471
H                22.3944741459       25.2627700810       76.5046888168
H                23.8082337773       24.8473289969       77.4914550006
N                19.3042764539       27.5581275426       77.3020330402
C                17.9616604295       27.2476981258       76.8954359026
C                17.7426763189       27.4779117634       75.4165014120
O                18.2504944037       28.3805347786       74.7605397301
C                16.9299841152       28.0710858553       77.6666743105
C                16.5749323625       27.4739126348       79.0300271460
C                15.7652045918       28.5146098157       79.7911732818
C                15.7705559141       26.1874357930       78.8876698429
H                19.5862865190       28.5239874240       77.3417378479
H                17.8341338225       26.1806816631       77.1038648509
H                17.3202546638       29.0835541954       77.7863346452
H                16.0213587283       28.1597074223       77.0704859857
H                17.4980446869       27.2487492880       79.5759480005
H                15.4742928451       28.1341500718       80.7660165973
H                16.3598703469       29.4105534996       79.9415416579
H                14.8727960578       28.7846073672       79.2351216086
H                15.5195699733       25.7824829108       79.8646763212
H                14.8470074287       26.3808420836       78.3469886489
H                16.3174001897       25.4158458183       78.3494020286
N                18.9539764322       32.4814623469       85.3235183081
C                19.0076897255       31.2929149470       86.1387320981
C                20.4429466485       30.8466042806       86.3644810901
O                21.3140751711       30.9811769718       85.5167914346
C                18.1130421495       30.2086865797       85.5613383102
C                18.6510076348       29.6579226746       84.2879404379
C                18.5130418351       30.4159929958       83.1340376439
C                19.2549541878       28.4045510305       84.2394714082
C                18.9309410264       29.9212413168       81.9186273921
C                19.7028679829       27.9106650765       83.0346807344
C                19.5242774771       28.6657289115       81.8687675143
O                19.8823030194       28.1355826542       80.6596518708
H                19.5515029325       32.5953926149       84.5177828453
H                18.5940025633       31.5721749994       87.1151818578
H                18.0021511631       29.4244133515       86.3071975620
H                17.1391831548       30.6672911946       85.3880971791
H                18.0321356593       31.3806324512       83.1825405289
H                19.3349456333       27.8272493518       85.1481940468
H                18.7608042564       30.4910411941       81.0181435383
H                20.1671082387       26.9414334960       82.9464611292
H                19.4732517425       28.6681089649       79.9616339903
N                31.9474236722       20.3916536529       78.7228289353
C                30.6921173989       19.9695574545       78.0874824313
C                30.9278880329       19.0345692147       76.8890800598
O                31.8535348820       19.2090623763       76.1047506499
C                30.0534044786       21.2668676461       77.5318024200
C                30.8373788687       22.4056643151       78.1720736175
C                32.2113207391       21.7885726941       78.3798014737
H                30.0602628411       19.4573692376       78.8164267344
H                30.1747373781       21.2857224630       76.4477379428
H                28.9846197178       21.2871881570       77.7170829100
H                30.8722089553       23.2877762593       77.5391553154
H                30.4020237703       22.6963296179       79.1267345118
H                32.7848684665       21.8159495515       77.4454408643
H                32.7829794326       22.2877483868       79.1483207363
N                31.1447684265       21.1249424854       73.2779746668
C                32.0960511761       22.2004855565       73.0716033486
C                32.9930337486       21.8446746134       71.8669882902
O                33.5122142188       20.7290106658       71.7932916742
C                32.9546976917       22.2928054289       74.3270135943
C                33.7640578669       23.5778313796       74.4680203745
C                32.8610463053       24.7568605024       74.8214206602
C                34.8084415661       23.3649031244       75.5618388499
H                31.3587309097       20.3832353651       73.9321700252
H                31.5384715916       23.1153219085       72.8627558769
H                32.2904827981       22.1874134757       75.1870704102
H                33.6233852814       21.4295048790       74.3213768281
H                34.2718999835       23.7828031237       73.5208585536
H                33.4512616611       25.6521259595       74.9979071821
H                32.1651081511       24.9582074175       74.0131363757
H                32.2854498481       24.5373357240       75.7180480851
H                35.4255405162       24.2548912999       75.6648564048
H                34.3108031423       23.1836915083       76.5096066527
H                35.4520426831       22.5238794086       75.3229562085
N                36.6293331070       26.5835404403       70.5244647617
C                36.1142125911       27.1450133023       71.7598494582
C                37.1216501479       26.7276092000       72.8603146865
O                37.6999230893       27.5519457750       73.5638289522
C                34.7079377953       26.6137649402       72.0471300119
C                33.5840576756       27.1722130591       71.1708322008
C                32.2741241050       26.3903142711       71.3344935345
O                32.1768580207       25.2482543761       71.7740564251
N                31.1800315601       27.0422153814       70.9298130960
H                36.0449371330       25.8995370327       70.0582779564
H                36.1262476234       28.2397368967       71.7055337457
H                34.7193866479       25.5272738043       71.9403557239
H                34.4801387360       26.8350735528       73.0912182737
H                33.4006081348       28.2198233094       71.4061169438
H                33.8669938750       27.1008639556       70.1183477617
H                31.2161252575       27.9761081939       70.5559629182
H                30.2938509518       26.5628334050       70.9778676546
N                39.4739315007       28.9766542368       75.3419595841
C                39.3816716900       28.9441044172       76.7842367840
C                40.7626208332       28.6642080597       77.3663315491
O                41.1439445210       29.2215405974       78.3831977624
C                38.3557930475       27.9538369837       77.3395344160
C                37.0356410851       28.0138110436       76.5798640242
C                38.1449493576       28.3408095046       78.7867887302
C                35.9737057884       27.0968965688       77.1610906359
H                39.0205652813       28.2656802551       74.7864253939
H                39.1103155486       29.9555058237       77.1178883034
H                38.7694834628       26.9426937905       77.2617174490
H                36.6683554434       29.0431746382       76.5796942630
H                37.2008377218       27.7338946567       75.5420640369
H                37.6634476593       27.5392894484       79.3400409775
H                39.0941356189       28.5632709996       79.2655896974
H                37.5202534902       29.2289696549       78.8477861092
H                35.1071039782       27.0593546543       76.5040107462
H                36.3612396379       26.0871620645       77.2775288182
H                35.6400797720       27.4526723332       78.1314852678
H                35.1404721280       23.8925765907       83.8619744610
H                21.0022474389       39.3513928686       75.7326952255
H                19.6419768956       31.9680669174       81.1904053531
H                22.6719257394       32.7681824043       83.3705721995
H                24.6274097765       34.5235755348       82.6568993550
H                27.8648128367       33.6634540631       83.4781996322
H                28.5686332311       28.3178052909       84.7907270934
H                27.9348351059       24.8274338829       84.9772461539
H                24.1521547666       23.6308051416       81.4845406951
H                17.1435760526       26.8671787354       74.8987330861
H                18.1271374867       32.5730998247       84.9800944725
H                20.7047172017       30.4247333098       87.2325254792
H                31.9536026694       20.1249432498       79.5823796208
H                30.3170480326       18.2584117423       76.7327020812
H                30.3676499913       21.4648254423       73.5789173742
H                33.1530499516       22.5191761080       71.1462646617
H                36.7591353133       27.2429877066       69.9258992347
H                37.3192022698       25.7598040445       73.0162837225
H                39.1212168309       29.7459146438       75.0356414685
H                41.3734956194       28.0143235333       76.9141345812
