 499 
 
N                48.0855427738       10.0334163240       -2.7411338623
C                47.7213820165       11.0309709520       -1.7712651028
C                48.4715396228       10.7925871668       -0.4801981405
O                48.9282674516       11.7353642985        0.2024487082
C                46.2049434912       10.9977317120       -1.5101214593
C                45.7328762421       12.0647362564       -0.5762472630
C                45.5977562377       13.3911567445       -0.9933176226
C                45.3956772579       11.7419848206        0.7375283064
C                45.1254664689       14.3562035853       -0.1238103550
C                44.9193107849       12.7037553501        1.6072220060
C                44.7782596630       14.0171211029        1.1779250499
H                47.3265863061        9.6613464112       -3.3106908368
H                48.0159264143       12.0420128171       -2.1497845354
H                45.7150365782       11.0800565375       -2.4894384545
H                45.9785368185        9.9847071623       -1.1433808373
H                45.8821677658       13.6284860064       -2.0131945833
H                45.5086514177       10.7010980463        1.0315046811
H                45.0332319196       15.3754077688       -0.4665932152
H                44.6471400851       12.4073212127        2.6104120987
H                44.3957127946       14.7615921860        1.8547063203
N                51.7073851231       12.4340292319       -0.6940874453
C                51.7952631022       13.8558525212       -0.4266558635
C                51.6717776556       14.1059485363        1.0688036437
O                52.3359436681       14.9918702094        1.6193912185
C                50.8611549803       14.7715951039       -1.2229517652
C                49.3894337981       14.6745893955       -0.8272573266
C                51.0820953584       14.5065814549       -2.7009900945
C                48.4664833535       15.5133488144       -1.7062706708
H                51.0406070295       12.0488404640       -1.3384484431
H                52.8236237392       14.1684660792       -0.6966626851
H                51.2112768175       15.7960921476       -1.0165008460
H                49.0747307746       13.6320735244       -0.8919361166
H                49.2913811385       14.9762042677        0.2202933114
H                50.5597009153       15.2295151724       -3.3238158478
H                52.1411359973       14.5606602862       -2.9512833099
H                50.7397468343       13.5105006960       -3.0062534912
H                47.4658184851       15.5080015844       -1.2836231253
H                48.8555965361       16.5237995683       -1.8011380994
H                48.3926267225       15.0770150988       -2.7055811042
N                50.7898915834       13.3624540809        1.7348814257
C                50.6504765654       13.5350055617        3.1639733490
C                52.0107514487       13.3285697623        3.8194916711
O                52.5072438299       14.1524173909        4.5874103529
C                49.6090980785       12.5751974625        3.7466737501
C                48.2014824936       12.8967939414        3.2258342725
C                49.6781484805       12.5941233145        5.2729251750
C                47.6688214434       14.2685371638        3.6209434651
H                50.2155135551       12.6774609172        1.2560061158
H                50.3713203758       14.5791900644        3.3666745666
H                49.8805632168       11.5698203875        3.4029568783
H                48.2005323215       12.8172233682        2.1374359030
H                47.5301408422       12.1275131961        3.6110232473
H                48.8814708641       11.9846072823        5.6894289021
H                50.6282332713       12.1885782605        5.6144511044
H                49.5944508183       13.6079589824        5.6561734519
H                46.6777433270       14.4062823752        3.1993946815
H                47.6085166489       14.3676944608        4.7009345964
H                48.3028059227       15.0644858619        3.2361938376
N                54.6795762851       15.9864303197        3.3728162890
C                54.4370871816       17.1029728534        4.2636657458
C                55.0204998827       16.8054486454        5.6382852231
O                55.7110604322       17.6391353611        6.2504109232
C                52.9282725423       17.3590814078        4.3229246365
C                52.4749793973       18.3677141290        5.3816009962
C                52.9591745333       19.7792835745        5.0658868668
C                50.9526627990       18.3440800211        5.4923798382
H                53.8914334432       15.5990747035        2.8732048296
H                54.9697663848       17.9889280886        3.8748086644
H                52.6209756499       17.6981335753        3.3300261031
H                52.4509515978       16.3947387452        4.5110400548
H                52.8953617022       18.0575190956        6.3434098113
H                52.5987746113       20.4755800442        5.8180548209
H                54.0455236447       19.8145717800        5.0497925632
H                52.6065682315       20.0942775488        4.0851744869
H                50.6207606565       19.0023933423        6.2904562893
H                50.5107072068       18.6713426581        4.5550479825
H                50.6003646333       17.3355604947        5.6965677134
N                54.6875208498       15.6332732568        6.1883432338
C                55.0777700407       15.3553480303        7.5514485453
C                56.5864146679       15.1980098943        7.7107365241
O                57.1685071257       15.6636005495        8.6905969626
C                54.3393655114       14.1697947786        8.2113706906
C                52.8915048758       14.1394925690        7.7414566499
C                54.9988844266       12.8155176958        7.9802774133
H                54.1785114607       14.9552841645        5.6425273640
H                54.8078862598       16.2604054056        8.1098501161
H                54.3591148455       14.3757229336        9.2882352414
H                52.2851722514       13.5417558880        8.4151114806
H                52.4881849791       15.1440693825        7.6930425354
H                52.8162077408       13.7151346320        6.7447671527
H                54.3525997469       12.0304363949        8.3638936492
H                55.1481925499       12.6469009748        6.9171366706
H                55.9634862493       12.7520982273        8.4784823453
N                56.4608065537       19.1124582058        8.7228798141
C                55.8637300329       19.0451877052       10.0436455084
C                56.8960899296       18.5893018238       11.0765783079
O                57.0844913680       19.2364539003       12.1000674034
C                54.6202343836       18.1489485480       10.0886491261
C                53.5700748597       18.5538249323        9.0399694337
C                54.0327522091       18.1453370168       11.4976071266
C                52.8390330796       19.8639559383        9.3142554071
H                56.0874722216       18.5681122385        7.9577261721
H                55.5869545274       20.0677667462       10.3383224574
H                54.9563391321       17.1322126180        9.8527073385
H                54.0508130850       18.6224238782        8.0608652498
H                52.8314540502       17.7493175964        8.9746716742
H                53.1015457693       17.5859222340       11.5000746398
H                54.7232046467       17.6763441998       12.1917225962
H                53.8455555219       19.1615565658       11.8309753016
H                52.1903591516       20.0854989044        8.4701606077
H                52.2215583164       19.7843784085       10.2033368062
H                53.5333902316       20.6920403977        9.4231622869
N                51.6540495460        7.6005198721       14.4474287917
C                50.2888938585        7.4561352846       13.9862516674
C                49.5065077407        8.7181884571       14.3400091952
O                48.6786685667        9.2151420997       13.5747146117
C                49.6605794211        6.2306683551       14.6584271286
C                48.2106609614        6.0525735569       14.3182518627
C                47.8321586420        5.2793762254       13.2278969860
C                47.2228998448        6.6445499784       15.0970076596
C                46.4938352625        5.1019266502       12.9187807476
C                45.8863712622        6.4621352185       14.7952817967
C                45.5191777876        5.6873722398       13.7088506442
H                52.1356428951        6.7543063004       14.7340759910
H                50.2504968188        7.3320634834       12.8874804050
H                50.2440215627        5.3636892887       14.3293971737
H                49.7799159787        6.3549000553       15.7364287042
H                48.5998904603        4.8065098797       12.6173448703
H                47.5160150014        7.2417213344       15.9473723149
H                46.2300117908        4.5231710479       12.0422004766
H                45.1291531866        6.9280861697       15.4043707971
H                44.4802463890        5.5390899639       13.4609163931
N                49.7395964480        9.1976901656       15.5536470511
C                49.0650904987       10.3802694994       16.0466937709
C                49.4263116933       11.6051536750       15.2081938992
O                48.5628500900       12.3765104702       14.8026038706
C                49.3791600412       10.5821327630       17.5391835160
C                48.7434450788        9.4341134234       18.3364125302
C                48.8846077824       11.9473936222       18.0107963257
C                49.0588768032        9.4871653411       19.8272432098
H                50.4552172149        8.7579831840       16.1198389000
H                47.9853229351       10.2282163190       15.9061559987
H                50.4686770771       10.5346806904       17.6403558129
H                47.6612948729        9.4585466269       18.1877754482
H                49.1179922379        8.4912886628       17.9309822387
H                49.1714033939       12.1019331094       19.0447773513
H                49.3293673141       12.7335434176       17.4074092000
H                47.8044452146       12.0093927863       17.9146420196
H                48.6991387432        8.5798999385       20.3034963877
H                50.1343456409        9.5459143963       19.9764506095
H                48.5831975217       10.3431153640       20.2938512397
N                50.7282222371       11.8435288261       15.0189032432
C                51.1035286430       13.0557863879       14.3289359146
C                50.7994776390       13.0068751337       12.8325798243
O                50.6476395636       14.0487845466       12.2005959648
C                52.5529490062       13.5048876807       14.5811546477
C                53.5319182899       12.6980457244       13.7265472821
C                52.8685418865       13.4376258444       16.0727179649
C                54.9816148109       13.1265290244       13.9105550045
H                51.4246339121       11.1620476414       15.2851588995
H                50.4437639100       13.8408666518       14.7315802016
H                52.6051895559       14.5475007208       14.2464716832
H                53.4369819508       11.6316320215       13.9502174785
H                53.2624804697       12.8210384356       12.6724127713
H                53.8067766817       13.9404246241       16.2829183950
H                52.0747700666       13.9134674291       16.6409138531
H                52.9581525950       12.4024362069       16.3945013194
H                55.6050363020       12.6153472795       13.1793729999
H                55.0797876466       14.2005256553       13.7705626297
H                55.3521829629       12.8502314739       14.8947442992
N                50.6704073951       11.8038069778       12.2732449838
C                50.2782214531       11.6933105499       10.8856586716
C                48.7844688387       12.0443890386       10.7919343951
O                48.3705705088       12.7295079246        9.8632724470
C                50.6905937238       10.3385772163       10.2849215272
C                50.9149420715       10.4256935153        8.7714666001
C                49.6854796455        9.2429250881       10.6103867783
C                51.5917450490        9.1826825539        8.2021565334
H                50.9318900310       10.9610073675       12.7626244713
H                50.8012343397       12.4881471062       10.3286280892
H                51.6464696294       10.0729350311       10.7600638439
H                49.9532017441       10.5692161730        8.2757822268
H                51.5421877198       11.2922400596        8.5506449757
H                50.0989996324        8.2655620107       10.3652316759
H                49.4450537469        9.2265771912       11.6681762127
H                48.7608113460        9.3654999075       10.0452861934
H                51.7933859843        9.3158100125        7.1424943597
H                52.5275581206        8.9860774403        8.7254657108
H                50.9659658455        8.2953721496        8.2995789770
N                48.0209534927       11.7112883643       11.8433963547
C                46.6212243948       12.1077609989       11.8464344911
C                46.5705216014       13.6355820899       11.8127920273
O                45.8459769803       14.2774058910       11.0541857302
C                45.9421668865       11.5710056908       13.0975804363
H                48.2717324320       10.9351320920       12.4451359406
H                46.1205756432       11.7300018949       10.9457076855
H                44.8926802709       11.8473912264       13.0898880901
H                46.0156219575       10.4878339292       13.0955804517
H                46.4341107717       11.9716644877       13.9791214312
N                47.3536327005       14.2142087540       12.7271642420
C                47.4583209977       15.6532990271       12.8420287547
C                47.7564621947       16.2960193548       11.4896650216
O                47.1229602178       17.2654931567       11.0832393969
C                48.5756205357       16.0433681055       13.8169736184
C                48.9396429061       17.4936289065       13.6325582047
C                48.0280813381       18.5034186579       13.9145708514
C                50.1891188384       17.8352818854       13.1344539980
C                48.3596038279       19.8271581115       13.6895061669
C                50.5267522229       19.1609481010       12.9264437856
C                49.6094995287       20.1601438627       13.1965572198
H                47.9039222456       13.6238492285       13.3439020319
H                46.4875121616       16.0495314480       13.1672221073
H                48.2498919762       15.8434382993       14.8386058732
H                49.4413648385       15.4219547017       13.5859363497
H                47.0546887465       18.2440339528       14.3017698985
H                50.8947299662       17.0514527500       12.8978320698
H                47.6426829386       20.6014714475       13.9070419035
H                51.5079618246       19.4039342582       12.5486732691
H                49.8773392323       21.1895399307       13.0201673645
N                48.8022168444       15.8110393767       10.8239756429
C                49.1680616985       16.4018368651        9.5576868745
C                47.9696868829       16.4923182410        8.6221339488
O                47.7547089627       17.4855967987        7.9327502560
C                50.2592640362       15.5897157684        8.8906105963
H                49.3335894960       15.0103585721       11.1482423811
H                49.5245582408       17.4280582490        9.7270385267
H                50.5309836782       16.0525971707        7.9455778214
H                51.1286831598       15.5452672553        9.5401631381
H                49.9146253437       14.5769624596        8.6870305046
N                47.1737903987       15.4148282456        8.5807412425
C                46.0208233798       15.4389746203        7.7082835520
C                45.0880141671       16.5804436614        8.1178734216
O                44.5889085002       17.3355433493        7.2822883228
C                45.2886578223       14.1037185476        7.7497219058
C                44.0833594638       14.0506327229        6.8085845466
C                44.5019027253       14.0418115072        5.3418768273
C                43.2454221649       12.8140315107        7.1062025018
H                47.4008834102       14.5577297283        9.0663613265
H                46.3510777605       15.6548025740        6.6807783315
H                45.9931471713       13.3126240805        7.4776028291
H                44.9614137771       13.9101400784        8.7740216962
H                43.4553289984       14.9333845302        6.9755264744
H                43.6288525204       13.9341251805        4.6986419911
H                45.0194405651       14.9569575573        5.0661827919
H                45.1603058498       13.1974903769        5.1357789104
H                42.4148202899       12.7571554352        6.4056940293
H                43.8315752109       11.9011836096        6.9804873828
H                42.8590803720       12.8337213756        8.1226589113
N                44.8604749585       16.6926701506        9.4231249639
C                43.9916020557       17.7154284910        9.9818659170
C                44.3615012799       19.1047358510        9.4438543170
O                43.5209735913       19.8475286415        8.9505367788
C                44.1141247624       17.6614524486       11.5105716087
C                43.3705943914       18.7480768056       12.2351316387
C                41.9815404393       18.7605968675       12.2727948182
C                44.0713283014       19.7115143433       12.9490517537
C                41.3051449849       19.7130037324       13.0155836327
C                43.3953077488       20.6518595734       13.7089175606
C                42.0105301109       20.6554663492       13.7450657394
H                45.2560359057       15.9975189578       10.0461767704
H                42.9589905090       17.5217623989        9.6568763117
H                43.7462018301       16.6812029450       11.8294679642
H                45.1770477854       17.7180914593       11.7456805938
H                41.4347834877       18.0036035375       11.7280483119
H                45.1499373992       19.6927896217       12.9195104196
H                40.2261433969       19.6978404155       13.0359631163
H                43.9578151542       21.3365146747       14.3253611387
H                41.4764512572       21.3732181336       14.3467527171
N                45.6258200645       19.4815890146        9.6716337660
C                46.0920463845       20.7743782573        9.2058124119
C                45.9328555589       20.8902556176        7.6829257180
O                45.3975340932       21.8723600452        7.1799591449
C                47.5068834241       21.1447183785        9.7160768341
C                48.0198563227       22.3635286050        8.9360322659
C                48.4993092133       19.9929690524        9.6361149079
C                49.3197277656       22.9307283711        9.4973166809
H                46.3013782279       18.7828338307        9.9525982136
H                45.3819970510       21.5137655715        9.6005642100
H                47.4168532693       21.4147521468       10.7734820035
H                48.1763750728       22.0680971041        7.8965632351
H                47.2523209140       23.1380558284        8.9383020524
H                49.4722131515       20.3195949387        9.9909319105
H                48.1904237726       19.1604831406       10.2616758398
H                48.6076979486       19.6302907218        8.6166873631
H                49.5641549686       23.8580027509        8.9880570991
H                49.2276746233       23.1172676669       10.5623397640
H                50.1466689644       22.2451522020        9.3341996239
N                46.3910354856       19.8691146125        6.9561267957
C                46.2441294983       19.8788770530        5.5165253796
C                44.8293268094       20.3055273398        5.1169802587
O                44.6291527167       21.1851003646        4.2874958108
C                46.5480278276       18.4895710465        4.9447953683
C                46.4589044314       18.4774024540        3.4466607837
C                47.5416418009       18.8823798002        2.6764945946
C                45.2957081062       18.0732022761        2.8050309405
C                47.4676209294       18.8736235448        1.2966526439
C                45.2158879442       18.0692991594        1.4238680561
C                46.3037251461       18.4681520431        0.6668124321
H                46.7804849449       19.0332296147        7.3751381516
H                46.9340891412       20.6143484281        5.0754660612
H                47.5533401994       18.2015539265        5.2616759707
H                45.8407107596       17.7713899538        5.3649295293
H                48.4557308418       19.1860323522        3.1664612946
H                44.4522035689       17.7390069433        3.3952474499
H                48.3235483988       19.1702849830        0.7088214682
H                44.3065103695       17.7428920552        0.9394531337
H                46.2488548192       18.4552324439       -0.4100737484
N                43.8494964053       19.6382724685        5.7327166937
C                42.4752468672       19.8037583200        5.3101320483
C                42.0555099576       21.2587570925        5.4905511255
O                41.5065177070       21.8789343527        4.5844358594
C                41.5255129924       18.8645160639        6.0680072099
C                40.0701497717       19.2378476475        5.7928981620
C                41.7696172636       17.4157219217        5.6525511177
H                44.0712552558       18.8658299895        6.3487178706
H                42.3967163658       19.6005656056        4.2304972008
H                41.7377566917       18.9632388219        7.1379342308
H                39.4111049539       18.5135575370        6.2629813573
H                39.8414407765       20.2306064674        6.1675653182
H                39.8788380031       19.2239891146        4.7213104307
H                41.0940432553       16.7497692660        6.1857748001
H                41.5959979521       17.2799882093        4.5848352338
H                42.7878296312       17.1036777773        5.8706848283
N                42.2588282175       21.7980416344        6.6954485506
C                41.6910988920       23.1077484428        6.9481526145
C                42.3348171804       24.1670377764        6.0441689234
O                41.6561081369       25.0319971307        5.5020489103
C                41.7281760714       23.4627962798        8.4328472564
C                43.1272254495       23.6434743092        9.0176745210
C                43.0350407466       23.6647032106       10.5451295246
C                44.3792403501       23.9853494729       11.1883407992
N                44.2534657212       23.9569314688       12.6718797051
H                42.6835959544       21.2658263379        7.4454447870
H                40.6391609808       23.0794816436        6.6234976771
H                41.1483173751       24.3781671059        8.5604751987
H                41.2145764762       22.6585440901        8.9644442749
H                43.7656446798       22.8241202253        8.6886300408
H                43.5558724033       24.5739538791        8.6459240302
H                42.2964806311       24.4155128670       10.8289414313
H                42.6829096875       22.6860050349       10.8786442235
H                45.1225913005       23.2475808910       10.8847442708
H                44.7154851996       24.9742770580       10.8753044965
H                45.1595015702       24.1600074897       13.1196318334
H                43.5627949783       24.6587541189       12.9787401689
H                43.9216757293       23.0249737167       12.9772915299
N                43.6698271783       24.1178650592        5.9378622811
C                44.3546171612       25.0668417623        5.0790665590
C                43.7878136447       25.0027974301        3.6572435838
O                43.4069495826       26.0039890698        3.0584739689
C                45.8754218547       24.8381235886        5.1291061177
C                46.3853293459       25.2159587002        6.5284196253
C                46.5741764453       25.6438077351        4.0367925812
C                47.9012836772       25.1471090483        6.6741548044
H                44.1888016904       23.3110084149        6.2666001531
H                44.1217941632       26.0794526997        5.4371331753
H                46.0564901481       23.7720890817        4.9518007206
H                46.0558818781       26.2312260668        6.7567963258
H                45.9284537772       24.5336131481        7.2455152864
H                47.6297016751       25.3941696513        4.0013465351
H                46.1425953205       25.4267285396        3.0624204991
H                46.4671757936       26.7098262127        4.2224106351
H                48.1735528069       25.3263909119        7.7101483192
H                48.2688204455       24.1682134512        6.3798534855
H                48.3895728700       25.9010469433        6.0644137765
N                43.7815698623       23.7853563712        3.1006295570
C                43.3585523999       23.6145357805        1.7274022671
C                41.9261758687       24.1092235615        1.4972086750
O                41.6555248634       24.8563664929        0.5634630305
C                43.4641937120       22.1530531047        1.3205793539
H                44.0271998329       22.9481845182        3.6176112197
H                43.9943340928       24.2373639402        1.0800042753
H                43.1699703927       22.0437274959        0.2810260580
H                44.4853656930       21.8053300312        1.4517941649
H                42.8032456504       21.5494341062        1.9374579247
N                41.0159566563       23.6570594641        2.3692632406
C                39.5985114570       23.8229357102        2.1251626056
C                39.2265038127       25.2717547418        1.8153875385
O                38.3308277358       25.5381112245        1.0245147401
C                38.7852995410       23.3332936597        3.3223790961
C                38.4931185168       21.8374134635        3.2382785399
O                38.8971738791       21.1187410388        2.3414312149
N                37.7615897241       21.3709562852        4.2686480435
H                41.2737387354       22.9856121231        3.0859683729
H                39.3006761604       23.2454913030        1.2349099868
H                39.3397143747       23.5470177379        4.2371693696
H                37.8309153129       23.8626747392        3.3480903425
H                37.4061628967       20.4290401452        4.2111557873
H                37.3294769338       22.0034774726        4.9206158197
N                36.7710848490       13.0896588357        1.3204635925
C                37.3192305850       13.1138871126        2.6744270856
C                37.4848757572       11.7323305790        3.2837615779
O                38.5996541629       11.3185007064        3.6696394270
C                36.4153663256       13.9559614084        3.5786016752
C                36.9753037325       14.1964664235        4.9797633608
C                38.2493603359       15.0371423527        4.9377765921
C                35.9206022253       14.8943366157        5.8356021665
H                35.9420800406       13.6933791721        1.2165028164
H                38.3307747167       13.5489858601        2.6021446166
H                36.2198822617       14.9167568049        3.0955008743
H                35.4609456416       13.4262452079        3.6626545604
H                37.2054872023       13.2178459047        5.4208907749
H                38.5563073592       15.3060682442        5.9456215903
H                39.0617293718       14.4851555758        4.4720923569
H                38.0863826207       15.9498344859        4.3661093263
H                36.3099767386       15.0674918531        6.8349875963
H                35.6545889038       15.8502176705        5.3893689345
H                35.0262271445       14.2795341819        5.8950111097
N                39.8067557106        9.3814447081        1.5565339763
C                41.1952050758        9.7491269297        1.7764018373
C                41.7102156351        9.2819846995        3.1352598279
O                42.7545339227        8.5692168335        3.2619270586
C                41.3285045831       11.2621388900        1.6312783908
H                39.1190103162       10.1298605115        1.6103779050
H                41.8168501112        9.2247119901        1.0307580230
H                42.3672163045       11.5435530481        1.7880587930
H                41.0282364381       11.5852841848        0.6371852878
H                40.7105130102       11.7216680890        2.3968564925
N                41.0087687952        9.7252922162        4.2303143715
C                41.3292388725        9.2224712715        5.5500518251
C                41.6465346447        7.7329138754        5.5560296742
O                42.6741605606        7.2581370321        6.1042095416
C                40.1814742615        9.5328440240        6.5274117723
C                40.0165470614       11.0514207832        6.6592627129
C                40.4756151626        8.8866690629        7.8778105264
C                38.8609492590       11.4857976324        7.5527249278
H                40.0277960185        9.9489212078        4.0839402867
H                42.2603434543        9.7181571018        5.8893636884
H                39.2757847161        9.0730942094        6.1089544107
H                40.9522972711       11.4401359840        7.0635039756
H                39.8856260902       11.4616211141        5.6555966013
H                39.6565398007        9.0565631782        8.5687300982
H                40.6298914266        7.8125463584        7.7652884774
H                41.4028412205        9.2825293805        8.2940785539
H                38.7567768257       12.5632294740        7.4754425442
H                37.9456401361       10.9904546432        7.2414958625
H                39.0647682746       11.2288991177        8.5868983098
N                45.0345158485        6.8862347722        4.0848562523
C                46.1022055331        7.5057741350        4.8349190490
C                46.3260252649        6.8608922238        6.1860136301
O                47.4395212129        6.3401678692        6.5247773374
C                45.8163324641        9.0024321543        4.9965640081
C                46.9029338511        9.6164073629        5.8657836682
C                45.7753397055        9.6797553746        3.6370297785
H                44.1577931339        7.3847695750        4.0626859771
H                47.0475491460        7.3762224596        4.2683212423
H                44.8419758868        9.0900701769        5.5016611998
H                46.7539955412       10.6838458624        6.0255932186
H                46.9501892492        9.1206357563        6.8360017022
H                47.8757568905        9.4729135115        5.3904627410
H                45.6819937225       10.7579088159        3.7426881673
H                46.7059202303        9.4845907415        3.0983469809
H                44.9459680758        9.2966188621        3.0488187771
N                45.2850987809        7.0477429754        7.0675938539
C                45.3120609661        6.4910539113        8.3881052641
C                45.2909341548        4.9685470927        8.5212741957
O                45.9119084376        4.4363690535        9.5200627878
C                44.1075473257        7.0315412634        9.1809116081
C                44.1081408126        8.5364450621        9.3345454155
S                45.6557474683        9.2532106163       10.0207665313
C                45.9322767336        8.1953486607       11.4674027964
H                44.3673229144        7.0443535216        6.6379795040
H                46.2681919070        6.8069935582        8.8560094752
H                43.2094884529        6.7425065288        8.6266940504
H                44.1121851676        6.5258188214       10.1483302292
H                44.0293866567        8.9865490648        8.3449411734
H                43.3018831160        8.8857857115        9.9792056174
H                46.8228897447        8.5716840693       11.9678186498
H                45.0668325715        8.2606796475       12.1172336601
H                46.1364344767        7.1663608233       11.1665662899
N                57.8693817832       18.9905019267       -0.2197251647
C                56.3998012901       18.9475202962       -0.1626994709
C                55.7403734590       19.2696913596       -1.4820098296
O                55.0703835079       18.3987184348       -2.1625559177
C                55.9014430364       19.9093935035        0.9097952329
C                54.4026456314       19.9918657139        0.8859060353
C                53.6043133983       18.8531661744        0.9171432979
C                53.7764716901       21.2354940176        0.9036998814
C                52.2243598037       18.9507067196        0.9433294409
C                52.3988731780       21.3384465567        0.9415527330
C                51.6160259160       20.1984520277        0.9577316305
H                58.2792019418       19.8135501560        0.2263702504
H                56.1240447137       17.9077059285        0.1068588909
H                56.2477808170       19.5871704862        1.9040112927
H                56.3431577355       20.8927431435        0.7230116966
H                54.0622531434       17.8667624295        0.9289631681
H                54.3967967330       22.1190576299        0.8892910936
H                51.6387847647       18.0394124610        0.9797546216
H                51.9422069726       22.3144063048        0.9716207691
H                50.5410658574       20.2710973433        1.0052922929
H                48.6822984849       10.3798891484       -3.3189220616
H                48.6144353741        9.8595905775       -0.1498980214
H                52.4922074898       12.1411573568       -1.0231465852
H                52.5356760825       12.4984938931        3.6312679207
H                55.2631038199       16.2333055113        2.7336384922
H                57.1147097741       14.7119882049        7.0145417251
H                56.4215163310       19.9583873684        8.4181502121
H                57.4254038809       17.7554336497       10.9200835498
H                52.1573252635        7.9540357308       13.7903594728
H                39.7173119410       26.0202851121        2.2612683138
