 278 
 
N                14.3035849218       34.7959401822       79.7989062453
C                15.1013518695       33.9290431500       80.6493260982
C                16.4998852745       33.8021397351       80.0231576956
O                16.6520120423       33.3561063370       78.8906168566
C                14.4837642374       32.5210105309       80.7785475379
C                15.3968904996       31.6468984223       81.6032838123
C                13.0959670270       32.5704395703       81.4123364704
H                14.1888473093       34.5068728631       78.8299571253
H                15.1811796864       34.4178148560       81.6247872397
H                14.4110595278       32.1142885209       79.7670090643
H                14.9620217614       30.6624974837       81.7363132810
H                16.3720067587       31.5452174422       81.1406605507
H                15.5403359981       32.0900812789       82.5959787529
H                12.6646042232       31.5799188604       81.4263402779
H                13.1524674597       32.9510739199       82.4279876357
H                12.4430829201       33.2276435745       80.8360900565
N                22.3370047314       25.8938175290       78.5094800876
C                21.5125451677       27.0614668637       78.2274520226
C                20.2094280576       26.5678196855       77.5600183361
O                20.0455919986       25.4065293415       77.2324428401
C                22.3748098250       27.9359276585       77.2959613848
C                23.5934729656       27.0460387724       76.9706932199
C                23.1316653106       25.6254007936       77.3392367690
H                21.2499388572       27.5308971457       79.1725976635
H                21.8210327494       28.1611742638       76.3799792693
H                22.6543657577       28.8683601992       77.7663776138
H                23.8713772498       27.1082120848       75.9148460061
H                24.4522391032       27.2999723773       77.5800147459
H                22.4898562878       25.2079128134       76.5564444624
H                23.9523656199       24.9455470588       77.5316387613
N                19.2557120110       27.5266401195       77.4347728187
C                17.9350735017       27.1992710106       76.9333979419
C                17.8296174532       27.4151812113       75.4343652779
O                18.4946542134       28.2306158023       74.8105721917
C                16.8550826645       28.0353534428       77.6306012539
C                16.5173462786       27.5460649479       79.0465117341
C                15.8882412341       28.6946303583       79.8220385087
C                15.5608914082       26.3620303885       78.9995235578
H                19.5191388811       28.4906808430       77.4620043638
H                17.7917790490       26.1331120785       77.1441199716
H                17.1961481848       29.0743985908       77.6504211337
H                15.9494501873       28.0222537803       77.0231458040
H                17.4458953190       27.2362516638       79.5339810924
H                15.6741996546       28.3861243243       80.8439862459
H                16.5629243903       29.5450223680       79.8660268886
H                14.9671252344       29.0203010359       79.3487046693
H                15.3900096582       25.9633153697       79.9952491691
H                14.6037160652       26.6766358652       78.5856265874
H                15.9519551838       25.5555888570       78.3814167332
N                16.8699398727       26.6703198614       74.8745736569
C                16.7272796756       26.6495465041       73.4379438452
C                16.3040808422       28.0505454922       72.9876422201
O                16.6750647288       28.5609115454       71.9461786367
C                15.6435696149       25.6436022456       73.0258561416
C                15.6760073479       24.3684928732       73.9465418465
O                15.1722883234       24.5434637448       75.0814131729
O                16.1576719062       23.3341494556       73.4741831346
H                16.4148296268       25.9092996264       75.3780350894
H                17.6889283597       26.3978401156       72.9653023561
H                14.6692961294       26.1053457133       73.1656393028
H                15.8105761967       25.3380683995       71.9942438981
N                15.3398060869       28.5536128632       73.7765821064
C                14.6681269062       29.8045599218       73.5309365020
C                14.8832559119       30.7506985807       74.7219988741
O                15.2477100105       30.3217014905       75.7815714994
C                13.1556821003       29.5291554701       73.3881526509
C                12.8061427385       28.3845624723       72.4351773446
C                13.1941162873       28.6856104074       70.9804330728
C                12.5097943986       27.7731960504       69.9620309455
N                13.0007436734       26.3700619624       70.0815804553
H                15.2326023075       28.1726106830       74.6992131413
H                15.0992356713       30.2192057030       72.6140599010
H                12.7831141311       29.2879549705       74.3814596965
H                12.6674651032       30.4458281715       73.0584380433
H                13.2998389364       27.4841041619       72.7897300299
H                11.7282362379       28.2366313388       72.4930053690
H                12.8982364756       29.7085461262       70.7455459683
H                14.2777643884       28.6284843307       70.8706693475
H                11.4297991673       27.7819371395       70.1227052706
H                12.7236296287       28.1289322389       68.9557498378
H                12.5334644351       25.7545470849       69.3963834481
H                14.0140258046       26.3406231238       69.9071356705
H                12.8326369794       26.0067587823       71.0293728820
N                14.5132088902       32.0362489044       74.5099562474
C                14.8499279875       33.0698104973       75.4417959567
C                13.6544165433       33.9177728809       75.8742496212
O                13.6674225178       34.5434016149       76.9351041672
C                15.9604885226       33.9475452911       74.8345256962
O                16.9879088318       33.0501556392       74.4856467482
C                16.4382171512       35.0323968368       75.7788233243
H                14.5256966520       32.3287941445       73.5318952300
H                15.2597987137       32.5824247681       76.3373344033
H                15.5671701762       34.4291688348       73.9179823577
H                17.8287772287       33.5150094776       74.4664064712
H                17.2828578666       35.5669524662       75.3603294912
H                15.6405125798       35.7503245811       75.9607632867
H                16.7290653391       34.5963243436       76.7364480251
N                12.6437752930       33.9780921285       74.9990285032
C                11.4456369415       34.7656231122       75.2149895738
C                10.2683769017       33.7977031203       75.3527573646
O                10.1389762778       32.9008231425       74.5302523657
C                11.2378357479       35.7683007049       74.0458376787
C                11.6669727014       35.2003619810       72.6989516794
C                11.2342887353       36.1111524996       71.5464216310
C                11.6146388948       35.5297664826       70.1728405817
N                10.9850582191       36.3108969771       69.0743372517
H                12.5957932893       33.2878492530       74.2667490674
H                11.5585242682       35.3232876377       76.1503465551
H                10.1848186893       36.0533997648       74.0288141842
H                11.8107700105       36.6706306011       74.2633258518
H                12.7529893819       35.0995023190       72.6848697959
H                11.2215578508       34.2096121191       72.5870775522
H                10.1556006225       36.2578899500       71.6007069572
H                11.6951200635       37.0884132399       71.6673268421
H                12.6987146440       35.5885722505       70.0553311303
H                11.3093188782       34.4903672978       70.0995286571
H                11.3459099918       36.0627311427       68.1540349179
H                 9.9587694989       36.2472405492       69.0966851717
H                11.1593337432       37.3575083421       69.1979615868
N                 9.4404958596       34.0087591780       76.3695326670
C                 8.2952956366       33.1933454602       76.7058212775
C                 7.0762996545       34.0755710426       77.0638330665
O                 7.2162613846       35.0819423904       77.7660977859
C                 8.5324824971       32.3963525405       78.0203418829
C                 9.7182937479       31.4829267834       77.9846498099
C                11.0124501927       32.0016807777       77.9968240964
C                 9.5423367745       30.1081220725       77.9595161998
C                12.1082278598       31.1590322435       77.9682186429
C                10.6397827749       29.2671445717       77.9354740147
C                11.9237091850       29.7871305445       77.9369806521
H                 9.6511540187       34.7520369502       77.0319141759
H                 8.0685376319       32.5281773126       75.8720913344
H                 8.6674536946       33.1305534023       78.8182385202
H                 7.6254352420       31.8293074909       78.2298295404
H                11.1727745121       33.0683056628       78.0565622700
H                 8.5477043996       29.6947176206       77.9586853778
H                13.1068661514       31.5691657652       77.9578650173
H                10.4975220271       28.1957363248       77.9202994333
H                12.7872093584       29.1357445694       77.9066126215
N                 8.6170846486       24.4494431908       84.4075372859
C                 8.5035334400       24.4107752444       82.9592495305
C                 9.8808843951       24.6571490390       82.3158775457
O                10.2192323992       24.1051387009       81.2853239390
C                 7.4651349374       25.3926452949       82.3903315633
C                 6.1212303081       25.2732234477       83.1147768836
C                 7.2905707006       25.1018038590       80.9071669771
C                 5.1010417048       26.2983264689       82.6288280506
H                 8.0951964986       25.1420041251       84.9255640561
H                 8.2141318446       23.3872069440       82.6741213587
H                 7.8568058585       26.4073693168       82.5374185770
H                 5.7231305768       24.2665492268       82.9647396557
H                 6.2559616807       25.4130642871       84.1850677860
H                 6.7812213549       25.9259362087       80.4127513594
H                 8.2534863629       24.9596074982       80.4249549981
H                 6.7047108527       24.1978355638       80.7682416158
H                 4.2108714254       26.2650937346       83.2510833259
H                 5.5183416423       27.3025584025       82.6769371283
H                 4.8018203178       26.1014602543       81.6037159938
N                10.6689927027       25.5269173891       82.9515993485
C                12.0059481680       25.7814743605       82.4660819382
C                12.8896289728       24.5444265050       82.6596068261
O                13.5422340410       24.0865768788       81.7318574370
C                12.5366499660       27.0459143445       83.1534387448
C                11.9321191855       28.2666159257       82.4485103728
C                14.0567805772       27.1119773827       83.1471861570
C                11.9034030864       29.4693655398       83.3664197105
H                10.3338481577       26.0275111405       83.7626061112
H                11.9643284082       25.9323165155       81.3797207047
H                12.1876422300       27.0170522223       84.1895075008
H                12.5080785514       28.4867218855       81.5524189725
H                10.9050127109       28.0446493523       82.1531835958
H                14.3976037239       28.0713163247       83.5187376492
H                14.4804371208       26.3329352398       83.7676643199
H                14.4297776879       26.9815268398       82.1324009661
H                11.5180972934       30.3386433011       82.8489573895
H                11.2542669126       29.2791219584       84.2195600778
H                12.8997841885       29.7103075814       83.7373493745
N                12.0315821901       21.5714105805       82.8698528920
C                11.5163994961       20.5862947566       81.9432275278
C                12.2904591758       20.5665078213       80.6123078686
O                12.5317273347       19.5310444996       80.0110227175
C                10.0585846094       20.9517455059       81.6280489456
O                 9.6691561118       20.3214890783       80.4307850656
H                11.3390278934       22.0974411131       83.3956789309
H                11.5813641753       19.5724109572       82.3555073702
H                 9.4183098946       20.6557631919       82.4647057785
H                10.0133472084       22.0419404652       81.4974807066
H                 8.7509181621       20.5453651014       80.2368489862
N                12.5855154739       21.7853340528       80.1441619795
C                13.2490575510       21.9860058066       78.8845377213
C                14.7515403538       21.6769340528       78.9263186572
O                15.4364684103       21.7194343024       77.9051416773
C                13.0613385365       23.4183035036       78.3911181969
C                11.6126933087       23.7276778456       78.0280792855
C                11.4869241307       25.1964502767       77.5984952621
N                10.6574081030       25.3855507129       76.4106285211
C                11.0600921584       25.2499904912       75.1447125865
N                12.3365487276       25.0862046924       74.7986461955
N                10.1569493805       25.4222122573       74.1819221751
H                12.4809046846       22.5783323497       80.7656526360
H                12.8274752893       21.2681344119       78.1684198492
H                13.4022252178       24.0834619671       79.1897340749
H                13.7250159225       23.5492057207       77.5329285462
H                11.3113970757       23.0699691669       77.2116681900
H                10.9791024789       23.5235312255       78.8856011336
H                11.0366381755       25.7808010727       78.3988704151
H                12.4767261814       25.6120581936       77.3957165655
H                 9.6678916536       25.4113332392       76.5818420465
H                13.0728716865       24.8781299793       75.4628056294
H                12.5629158722       24.8248748014       73.8563283847
H                 9.1744566559       25.5019140579       74.3987630367
H                10.3939102112       25.2082547582       73.2220139275
N                15.2720435597       21.4184897842       80.1305676142
C                16.6433185987       21.0038693318       80.3251323587
C                16.7161410060       19.4828022434       80.5674430226
O                15.7439394199       18.7717828306       80.7548375913
C                17.2740175671       21.7904479832       81.4701277230
C                17.2377293762       23.2913679058       81.2073832013
S                18.2251987318       24.1840409198       82.4863489905
C                17.1297024075       25.5555603253       82.8895738356
H                14.6668304839       21.2435022428       80.9279750522
H                17.1623175321       21.2139328579       79.3809960663
H                16.7167019155       21.5690443859       82.3865683818
H                18.3070780306       21.4714097685       81.6172239854
H                17.6645068004       23.5233578214       80.2336486580
H                16.2177912471       23.6646262055       81.2594065582
H                17.5097445374       26.0125932686       83.7937257296
H                17.1470125336       26.2802778989       82.0781131387
H                16.1323297706       25.1625814317       83.0389623850
N                19.0763295084       32.4308281195       85.3790342020
C                19.1229480071       31.2133841120       86.1439902348
C                20.5598713869       30.7671406202       86.3486978135
O                21.4017816316       30.8738223778       85.4682007704
C                18.2296073335       30.1269956037       85.5517991143
C                18.7020449810       29.6188409743       84.2386783310
C                18.4373775263       30.3668286710       83.1024407393
C                19.3829487931       28.4115800943       84.1188383264
C                18.8174164229       29.9142001535       81.8587730285
C                19.7768553230       27.9513809688       82.8829876498
C                19.4696341538       28.6932608303       81.7447540110
O                19.7897491377       28.1905602660       80.5175103604
H                19.6251322598       32.5336686999       84.5381221311
H                18.7105119703       31.4586736990       87.1363416746
H                18.1772488490       29.3086923861       86.2782586887
H                17.2329964057       30.5575953755       85.4512034624
H                17.9113012843       31.3065472889       83.1884883082
H                19.5821762978       27.8283156807       85.0037178864
H                18.5817147915       30.4937559504       80.9770976864
H                20.2953081223       27.0138615805       82.7543816772
H                19.3428059107       28.7305804732       79.8451517846
N                 8.2693484409       31.6476959126       72.8385319205
C                 7.6875236267       30.4076834775       73.3632808312
C                 6.2907451149       30.6259729045       73.9434194603
O                 6.1151975698       31.3514104847       74.9104476467
C                 8.5223379107       29.7559833217       74.4729302849
C                 8.1153031898       28.2932295213       74.5829437144
C                10.0179654515       29.8287062822       74.2022995735
H                 9.0472938656       32.0426219456       73.3671680907
H                 7.6126827036       29.7256106641       72.5051240804
H                 8.3069047385       30.2682213984       75.4111737430
H                 8.6426545230       27.8429041641       75.4192923139
H                 7.0493989508       28.1756372348       74.7593477730
H                 8.3707809666       27.7638283797       73.6678385138
H                10.5274669655       29.1623867669       74.8900119821
H                10.2176478690       29.5237205311       73.1795331211
H                10.4137293952       30.8223939966       74.3712958961
H                13.4708476068       34.8617639831       80.1338925008
H                17.3070894822       34.0858410554       80.5407820071
H                22.4910406263       25.8415225110       79.3946570045
H                 6.1669035311       33.8326658884       76.7262004604
H                 8.3463695602       23.6629331437       84.7512163321
H                12.9385216532       24.0998460226       83.5540103706
H                12.5518199851       21.1651943483       83.4816870275
H                17.6025308455       19.0199720887       80.5775078299
H                18.2334683787       32.5782222087       85.0999999773
H                20.8411098449       30.3726360333       87.2234955390
H                 8.5837675350       31.5039018929       72.0075903382
H                 5.5013427636       30.1713533392       73.5309088803
