 291 
 
N                24.9565939085       41.0916222071       15.8989863819
C                24.4442411552       39.8191821916       16.4026636065
C                23.8801885755       39.0101667093       15.2361636205
O                23.2899235937       39.5915685938       14.3289701681
C                23.2977124680       40.1683271092       17.3433414364
C                22.7606571747       38.9234763315       18.1054514328
C                21.8383444820       39.3928734884       19.2250095920
O                22.3009535524       40.1497589190       20.1262724070
O                20.6638906134       38.9885369734       19.2029856094
H                24.3556203081       41.9000507834       16.0214027926
H                25.2457187156       39.2719482911       16.9010673611
H                23.6705666956       40.8609451705       18.0980542424
H                22.4877635032       40.6370069233       16.7820574404
H                22.2082080781       38.2554152327       17.4483627216
H                23.5960746902       38.3793374146       18.5478161804
N                21.5132382644       41.4383594382       12.7964773615
C                21.0677583308       42.7725619008       13.1368687038
C                20.8579006898       42.8870506997       14.6290778060
O                21.0206867947       41.9283734386       15.3623131095
H                21.9810257174       40.9145110181       13.5294871183
H                21.8355845720       43.4982045378       12.8353914873
H                20.1573523644       43.0173092538       12.5836792468
N                20.5687276188       44.1161899259       15.0835303424
C                20.4469312702       44.3319103781       16.5354706724
C                19.3620492751       43.4513096332       17.1173081396
O                18.2407977184       43.3941693549       16.6160557174
C                20.1031146441       45.8251573130       16.7808706340
C                20.0734567590       46.1446377783       18.2619053670
C                19.7928765017       47.6410692467       18.4711452730
N                20.9437087242       48.3620903652       18.0144935040
C                20.9604595094       49.6388053666       17.6260227157
N                19.8777407094       50.3857615649       17.7728479516
N                22.0605489340       50.1486635679       17.0909881142
H                20.2271369071       44.8296090310       14.4377025716
H                21.4041822188       44.0619665345       16.9902441150
H                20.8285115243       46.4459559731       16.2565569555
H                19.1161361050       46.0029689834       16.3521826343
H                19.2805717709       45.5715516710       18.7437363860
H                21.0141486769       45.8766515135       18.7411538036
H                18.9177866166       47.9242546148       17.8842871154
H                19.5864888199       47.8371001450       19.5289850726
H                21.8333784768       47.9166175877       18.1958076481
H                19.0291551975       50.0283806029       18.1750203883
H                19.8477055142       51.3053205521       17.3594828128
H                22.9316845346       49.6480194475       17.0631495782
H                22.0785653689       51.1366114069       16.8518575415
N                19.7240032036       42.7487482132       18.2010544549
C                18.7453937349       41.9292553740       18.9172212670
C                18.0525700470       40.9115206500       18.0228162759
O                16.9345794742       40.4638080700       18.3345705839
C                17.6136186260       42.7068820529       19.6227299505
C                16.8826248509       41.9193205145       20.7194567540
O                17.6044329070       41.3948595582       21.6337788362
O                15.6397770796       41.8312998142       20.7108313273
H                20.6547428075       42.8454655694       18.6115819119
H                19.3069990069       41.3641364070       19.6697976796
H                18.0504232408       43.5769983824       20.1236485264
H                16.8712662625       43.0441301027       18.9021344754
N                18.7590034185       40.4404952898       17.0114220467
C                18.0633357248       39.5541248610       16.0459185575
C                17.7206430848       38.2161133217       16.6953161099
O                16.7758151670       37.5135855107       16.2625244716
C                18.9013752127       39.4051694664       14.7569686979
C                20.2119255808       38.6820988201       15.0599755357
C                18.0070405858       38.7067337821       13.7011476173
H                19.6109832785       40.8906251218       16.7073147607
H                17.1048489323       40.0234234184       15.7869785264
H                19.1323194083       40.4121980878       14.4022579136
H                20.7707618831       38.5347462524       14.1396309305
H                20.8193144531       39.2691567605       15.7391004902
H                20.0283220340       37.7061814627       15.5033642316
H                18.6007807998       38.4641086489       12.8234214609
H                17.5845688757       37.7960718301       14.1069226380
H                17.2009812875       39.3707163651       13.4082008383
N                18.4559599919       37.7542881843       17.7068675423
C                18.0534146636       36.4715619535       18.2739511848
C                16.6792796970       36.6254547201       18.9493454955
O                15.7736386515       35.8462583193       18.6389886091
C                19.1044632512       35.9729256150       19.3354000322
C                18.5615498269       34.7878734540       20.1125132356
C                20.3999645438       35.5701876666       18.6101453489
H                19.2211970890       38.2695615505       18.1334467278
H                17.9449815087       35.7396773144       17.4713137880
H                19.3187413411       36.8079682509       20.0035181493
H                19.3158660880       34.4236717036       20.8043722888
H                17.6624136599       35.0545488192       20.6596530953
H                18.3074308091       33.9722297951       19.4385714398
H                21.1546434461       35.2727420859       19.3315359683
H                20.2215011017       34.7260644792       17.9504846360
H                20.7974452859       36.3963407665       18.0286345759
N                16.5732160088       37.5655184426       19.9012175957
C                15.2968097508       37.6852775371       20.6016572520
C                14.1683708795       38.1654003745       19.7147194921
O                13.0485160501       37.6411415461       19.8155577845
C                15.4167889030       38.6096014725       21.8200980760
C                16.3456443916       37.9762047679       22.8495128032
C                15.7810622199       36.7337005292       23.5592605802
C                16.8375110770       35.6520928543       23.7217439474
N                18.1240337812       36.2951433421       24.0881979563
H                17.3461500017       38.1806694973       20.1454384521
H                15.0096484728       36.6777460352       20.9286407580
H                15.8044816426       39.5730051099       21.4971512262
H                14.4219303048       38.7662995014       22.2373233983
H                17.2428011365       37.7238741393       22.2918814853
H                16.5955590276       38.7379125763       23.5822777105
H                15.4112696286       37.0327690207       24.5392352116
H                14.9286524163       36.3317329559       23.0157471820
H                16.5460760290       34.9438336137       24.4950858409
H                16.9806543483       35.0854058731       22.8018150410
H                18.8677302678       35.6381998271       24.4042446489
H                18.5369451307       36.7670115120       23.2753224370
H                17.9760237360       37.0507935369       24.7991654728
N                14.4669382917       39.1463130144       18.8963379540
C                13.4405849495       39.6740628148       18.0135400578
C                13.0611262743       38.6250437214       16.9652425943
O                11.8939662925       38.5132380510       16.5693419854
C                13.8822554329       41.0122580157       17.4016817251
O                13.9477177572       41.9656692690       18.4623922736
C                12.8978655039       41.5034634734       16.3504074244
H                15.3754855276       39.5912667283       18.8987732863
H                12.5375469515       39.8537765709       18.6143961777
H                14.8846227599       40.8835809557       16.9668749480
H                14.6369934174       41.7606981903       19.1235552060
H                13.1855030394       42.5019771821       16.0393578851
H                12.9030615918       40.8297711836       15.5011884620
H                11.8984981676       41.5358903323       16.7735258067
N                14.0424843161       37.8101800174       16.5654680625
C                13.6956888846       36.7511491624       15.6270137082
C                12.7194312964       35.7481506580       16.2537200452
O                11.7911852090       35.2486021815       15.5950613477
H                15.0352123462       37.9445954340       16.7260555752
H                13.2219238962       37.1604671151       14.7304929405
H                14.6161683421       36.2324839826       15.3567179203
N                12.9189637747       35.4574233550       17.5416325468
C                11.9773884216       34.5332402231       18.1822325064
C                10.5896438804       35.1563001813       18.2582292726
O                 9.5676490254       34.4681788095       18.1825082513
C                12.4901326309       34.2379041965       19.6218649753
C                13.7301534669       33.3574655989       19.5215866124
C                13.4954775742       31.8694458736       19.3864124477
N                13.0762356020       31.3041716267       20.6634748940
C                13.0383627638       30.0027148849       20.9257321146
N                13.6054260252       29.1095566104       20.1272425329
N                12.3751112182       29.5787002138       22.0076102563
H                13.7385773004       35.7715078812       18.0467861580
H                11.9073080802       33.6169985478       17.5895033221
H                12.7173053547       35.1876697099       20.0996456652
H                11.6959249270       33.7456319546       20.1799591172
H                14.3304842235       33.6811649209       18.6748377947
H                14.3464762813       33.5104967433       20.4094253502
H                12.7309885209       31.6583145929       18.6319738101
H                14.4325682401       31.4062274820       19.0789119820
H                12.5169865801       31.9195460044       21.2390538825
H                14.1209538655       29.3468779687       19.2874666496
H                13.5977549413       28.1381036363       20.3919788504
H                12.0309566414       30.2424570609       22.6814625616
H                12.4264483821       28.6140909799       22.2922036013
N                10.5640770242       36.4608393230       18.5457319979
C                 9.2903102784       37.1864873846       18.5179898415
C                 8.5867124647       37.1636850389       17.1520656930
O                 7.3777783514       36.9958775274       17.1235351941
C                 9.4889231858       38.6277826962       18.9859160946
O                10.0089158039       38.5859584406       20.2988654903
C                 8.2293722303       39.4744242529       18.8687085138
H                11.4065992750       36.9879461535       18.7459565645
H                 8.6036037647       36.6798838326       19.2126869988
H                10.2781533003       39.0747725217       18.3667893382
H                 9.3160300304       38.3061329640       20.9287784036
H                 8.4057933199       40.4546552278       19.3006979274
H                 7.9551523701       39.5987197877       17.8274769607
H                 7.4020770564       39.0113949879       19.3997753888
N                17.5110796968       30.1222690071       20.3864316587
C                16.8671146976       30.6577241383       21.5774308332
C                17.7794050503       31.5323542499       22.4249717005
O                17.2970648966       32.1874569859       23.3435953841
C                16.3239075503       29.5291338546       22.4940760785
C                17.3838175484       28.5276451730       23.0260678877
O                18.6014381069       28.7793039850       22.8647909012
O                16.9367983906       27.5203854143       23.6131008884
H                17.9480071923       29.2095100513       20.4374969487
H                16.0414419893       31.2944416308       21.2425348554
H                15.8621532735       29.9940483381       23.3645637277
H                15.5854968453       28.9382140266       21.9554463247
N                19.0304559458       31.6855546319       22.0521754726
C                19.9360677464       32.5452340344       22.8027638955
C                21.1322647864       32.8934779991       21.9444833584
O                21.3888101969       32.2350552565       20.9328389272
C                20.4444552401       31.8524606457       24.0807243997
O                21.3619916343       30.8462702171       23.7305647742
H                19.4620948145       31.0709203919       21.3780005411
H                19.3722079136       33.4324588127       23.1012410780
H                20.9342643818       32.6015652076       24.7177100284
H                19.5877089904       31.4214532765       24.6145956039
H                21.6576123899       30.3436089842       24.5480227414
N                21.8848152600       33.9512381731       22.3329511509
C                23.0592734169       34.2922862020       21.5163302950
C                24.0567238766       33.1402180751       21.4553571259
O                24.6272072505       32.8320377825       20.3998652094
C                23.6659016763       35.5882132745       22.0931811447
C                25.1189334596       35.7677054942       21.6777039914
C                22.7961208044       36.7850468153       21.6899073131
H                21.6451593896       34.5104059971       23.1526155474
H                22.7517347812       34.4554657288       20.4771175018
H                23.6375799751       35.4763294170       23.1832679147
H                25.4745533955       36.7455621974       21.9873956981
H                25.7389524633       35.0034375233       22.1403657996
H                25.1875257786       35.6800341021       20.5963256695
H                23.1817643030       37.6968686772       22.1335454552
H                22.8137191695       36.9053201323       20.6088712497
H                21.7667222942       36.6374128720       21.9947733102
O                19.6525764069       42.4279151455       22.7811150659
H                19.3276441904       42.4862294902       23.6831725710
H                18.9041085843       42.0607337999       22.2671047770
O                24.0541151830       43.5700102005       17.3286418114
H                24.8792134972       43.2791049928       17.7331034128
H                23.3620701539       43.3586230944       17.9844738147
O                21.5914500689       40.4118114982       22.7615047594
H                21.8238191553       40.2891980882       21.8260236928
H                20.9746464870       41.1663124503       22.7816192893
O                17.0384531535       41.2173107068       24.3282212455
H                17.1895445629       41.2247707207       23.3645209859
H                16.0917811748       41.3403905797       24.4334995998
O                24.8823610914       40.0663102489       20.8225788123
H                24.9873965021       39.8916092042       21.7811450569
H                23.9274238994       40.0775930929       20.6257755532
O                18.7691042271       38.9266247025       21.1186651803
H                19.5128510082       39.0426243784       20.4865278091
H                18.4028360088       39.8075053794       21.3183028633
O                13.7234442293       41.5384342126       22.7282237120
H                14.3487187164       41.5495452999       21.9887076194
H                12.8934396108       41.1832919580       22.3650943501
O                11.7841570981       36.6762915436       22.1891027346
H                12.0574416690       37.2453551129       21.4572211776
H                10.9077889600       36.3699423920       21.9465001923
O                15.5421325614       44.0350182828       16.9888253575
H                16.4672469757       43.7730087350       16.8844569671
H                15.2438034929       44.2606830043       16.1031912984
O                22.2260684321       42.8809364380       19.4234272622
H                22.3156926911       41.9465027611       19.6889531379
H                22.3090444701       43.3816423680       20.2424335877
O                23.3790025036       33.5445092686       25.1343096944
H                23.9034390990       34.2747928826       25.5154583708
H                23.3548449045       32.8406747941       25.7940911375
O                20.7267306370       35.6569321869       24.2350842564
H                20.7947583369       36.6188099553       24.1353369602
H                20.8322035211       35.4367868023       25.1689132003
O                19.5606699642       34.6561812509       26.4101953062
H                19.7198293057       34.1851754382       27.2354420490
H                18.6129131566       34.7839018196       26.3392631395
O                19.9395508553       38.2849403456       23.4458534149
H                19.4645693811       38.4775848005       22.6132217929
H                20.6600418900       38.9440076600       23.4168138215
O                18.1526512527       38.8172818920       25.4418238617
H                18.9438090633       38.8190429804       24.8727512652
H                17.7073891038       39.6548867530       25.2498220728
O                25.4448440947       39.6266083079       23.3283291170
H                26.2267238896       39.0020174993       23.3606071645
H                24.7920624127       39.2964104665       23.9533174049
O                25.8165614023       42.6670394308       21.5672171969
H                25.5468587325       41.8057761854       21.2091786520
H                26.3624259689       43.0820966295       20.9001693792
O                24.6732638533       35.6341414935       26.1273728721
H                24.7509879676       35.6110874128       27.0977903320
H                24.2847681088       36.4896167424       25.9126635006
N                11.9093824699       47.3933361014       19.2387398780
C                12.2667227532       46.1670880406       19.9926127882
C                11.1328757631       45.6964318534       20.9422130403
O                11.0380363096       44.5191907414       21.2594569767
C                13.5218754992       46.4514586379       20.8223188855
C                13.9618738958       45.2709846157       21.6910891759
C                14.6853500040       44.2705138773       20.8074149397
C                14.8543249591       45.7308510626       22.8732430001
H                12.3950231733       48.2522757499       19.4761121974
H                12.4401697011       45.3611290432       19.2747782027
H                14.3317580187       46.7268337298       20.1460062980
H                13.3072402636       47.3123433001       21.4603738048
H                13.0924316374       44.7813162115       22.1332284932
H                14.9874479085       43.4130159359       21.4011748919
H                14.0549499681       43.9359482033       19.9912306020
H                15.5816281243       44.7201711914       20.3845392369
H                15.1570673246       44.8690697300       23.4595522919
H                15.7458801081       46.2329398872       22.5053996487
H                14.3064195635       46.4100152571       23.5203327549
H                25.7275714660       41.2919940033       16.3178476347
H                23.9929945309       38.0167576955       15.2158326669
H                20.8057879518       40.9386839212       12.5518584068
H                 9.1182782054       37.2846769415       16.3137347186
H                16.9052319905       30.0477991147       19.7250673174
H                24.2634761657       32.6136883290       22.2799903276
H                12.0715574211       47.2654248271       18.3627615728
H                10.4731052258       46.3576107549       21.2993478865
