 168 
 
N                -5.3898191734       91.3909139123        8.5278997268
C                -5.7611147551       91.4975247920        7.1527224404
C                -6.3110771148       90.1922196267        6.5907735644
O                -6.5435635092       90.0754906594        5.3978906864
C                -4.5914633297       92.0280160743        6.3206755356
C                -5.1291164722       92.9958170907        5.2619515385
C                -5.7764359396       94.2616170445        5.8296073814
O                -6.9749773651       94.4962011213        5.7431294692
N                -4.9168953791       95.1225018097        6.4144739886
H                -4.4010335733       91.3368961480        8.7492244589
H                -6.6037348752       92.2049073894        7.0908740551
H                -3.8829639733       92.5197371522        6.9856395111
H                -4.0902768785       91.1960706823        5.8257703164
H                -4.3181675162       93.2992218706        4.5980851699
H                -5.8870011711       92.4748612181        4.6751489242
H                -3.9244200771       94.9683588828        6.3708128026
H                -5.2636781329       96.0065224242        6.7486169893
N                -9.8733438919       89.7039136565        7.6189333392
C               -10.4787058038       90.0999246583        6.3553282163
C               -11.3449166548       89.0267672174        5.6185115435
O               -12.4890982037       89.3831745466        5.3297444863
C                -9.4610105281       90.8420448616        5.4393631016
C                -9.0319945154       90.1609809998        4.1350689571
C                -9.4988665894       90.8724020197        2.8306379699
O                -9.1281327929       92.0640824602        2.6895167344
O               -10.1301531025       90.2197536281        1.9664201096
H                -9.0331288416       90.1791546781        7.9214017282
H               -11.2645923214       90.8338693981        6.6085925661
H                -9.8944902257       91.8115413373        5.1795779099
H                -8.5852467267       91.0485243164        6.0500640458
H                -7.9481574407       90.1877793682        4.0710492550
H                -9.3423473506       89.1193640311        4.1000508085
N               -10.6648759748       93.8503594253       -1.7328206685
C                -9.5478121617       94.1573187936       -0.8000345735
C                -8.6218659865       95.1550820134       -1.5550777293
O                -8.6530155158       95.1044627544       -2.7795315636
C                -8.8033867291       92.8193967952       -0.5108903713
O                -7.8144043230       92.9969235028        0.4543490118
H               -10.9967733765       92.8815176525       -1.6189420826
H               -11.4613837791       94.4919895146       -1.5895663778
H               -10.2642119351       94.0296271391       -2.6909432195
H                -9.8959924996       94.5621850506        0.1518533210
H                -9.5289154894       92.0698264935       -0.1726136798
H                -8.3051173151       92.4833680681       -1.4219333290
H                -8.2137790215       92.7972871633        1.3340080655
N                -7.8520004424       95.9884733419       -0.8411926526
C                -6.7419378673       96.6347236047       -1.5427777304
C                -5.8564784039       95.4907090160       -2.1565020500
O                -5.6237393287       95.3285276999       -3.3409942681
C                -5.7860055454       97.5235186706       -0.7021955866
C                -6.2814823596       98.4085707267        0.4378997057
C                -4.9414761229       98.8503838782        1.1468761548
O                -4.4273570792       98.0162568055        1.9204801446
O                -4.4746731817       99.9572496524        0.8275244578
H                -7.8058272442       95.9334266190        0.1653162906
H                -7.1674458299       97.2047892585       -2.3743960683
H                -5.0131350289       96.8881916238       -0.2602964623
H                -5.2711177187       98.1722771264       -1.4171775390
H                -6.8200532684       99.2835629458        0.0785169099
H                -6.8888781807       97.8540504065        1.1529440219
N                -5.4144363838       94.6821121634       -1.1712702161
C                -4.3561016011       93.6907537707       -1.2695448200
C                -4.9039996417       92.3426296409       -1.7596952758
O                -4.9066720520       92.0645200178       -2.9494314153
C                -3.6817769307       93.6527445936        0.0951157940
H                -5.6842698319       94.8986587300       -0.2217797055
H                -3.6567555660       94.0166308583       -2.0501786463
H                -2.8982422496       92.8996110202        0.1279157132
H                -3.2341461227       94.6206821098        0.3091912883
H                -4.4098879555       93.4402475582        0.8760746351
N                -5.3944649890       91.4798505033       -0.8704878917
C                -5.5801537620       90.1017370032       -1.2594724507
C                -6.2736220069       89.9230572138       -2.5994935325
O                -6.0747808131       88.8984074403       -3.2456147401
C                -6.3810963850       89.2217618783       -0.2710714430
C                -5.8439162759       89.0007202719        1.1689554099
C                -6.6623034212       87.8763307952        1.7991261705
C                -4.3686778944       88.6459921313        1.3174407739
H                -5.5242936769       91.7269365843        0.0988520431
H                -4.5926365940       89.6367627699       -1.3774157741
H                -7.3870001440       89.6316057964       -0.1613959309
H                -6.4646161477       88.2465836684       -0.7547970140
H                -6.0374117343       89.9141734164        1.7431376260
H                -6.4013242006       87.7721951364        2.8487273698
H                -7.7272423511       88.0928385145        1.7433754456
H                -6.4656253536       86.9344292572        1.2946686704
H                -4.1477249740       88.4951328698        2.3690568675
H                -4.1351465085       87.7294538163        0.7809459103
H                -3.7273934755       89.4427063219        0.9469631878
N                -7.2246816670       90.7807275554       -2.9975389035
C                -8.0790927001       90.3672422465       -4.0952895489
C                -7.3382479697       90.2588148371       -5.4535657774
O                -7.8160043612       89.6757380927       -6.4152441697
C                -9.3247439530       91.2645048179       -4.1205989376
C               -10.6056150051       90.5028447309       -4.5299201270
C               -11.3418933727       89.8200418255       -3.3549728609
C               -12.3569313058       88.7596774772       -3.8014327228
N               -13.5248898538       89.3540168158       -4.5154496004
H                -7.2266484337       91.7443510077       -2.7064499425
H                -8.3758176991       89.3357481164       -3.8628809993
H                -9.4514715000       91.6741442657       -3.1212945103
H                -9.1329953002       92.0857240877       -4.8140135896
H               -11.2612118663       91.2309878585       -5.0094497390
H               -10.3098339019       89.7728585975       -5.2841627109
H               -10.6086673660       89.3254303954       -2.7214840868
H               -11.8402876827       90.5753179449       -2.7502504460
H               -11.8705752124       88.0540054185       -4.4761737084
H               -12.7226809211       88.2208632507       -2.9308209042
H               -14.1860989576       88.6266986238       -4.8204035812
H               -14.0208090449       90.0228882737       -3.9060636961
H               -13.1977815692       89.8615987710       -5.3535688933
N                -6.1391017644       90.8328152451       -5.4205059275
C                -5.1302395104       90.8671623142       -6.4546515089
C                -4.3807942686       89.5007544138       -6.5961363222
O                -4.0093430744       88.9899078780       -7.6487080101
C                -4.1558678401       92.0716435550       -6.1102467332
C                -3.0335661223       91.6969693053       -5.0911464533
C                -4.9575673628       93.3256743076       -5.6816448141
C                -1.9886038163       92.7618429643       -4.7372967190
H                -5.8397213124       91.2869087760       -4.5667083865
H                -5.6012978326       91.0697545025       -7.4220460939
H                -3.6530526534       92.3021379092       -7.0577089177
H                -3.5206841543       91.4077508176       -4.1725952136
H                -2.4940821605       90.8379474829       -5.4950021781
H                -4.3354522992       94.1961242426       -5.8725960924
H                -5.8638020210       93.4242556489       -6.2708713378
H                -5.1935547962       93.3060869121       -4.6271894545
H                -1.2455975177       92.3280356224       -4.0740389403
H                -1.4711424798       93.1138483655       -5.6282857703
H                -2.4374899721       93.6157452497       -4.2411449945
N                -4.1577409401       88.9239143409       -5.4089110291
C                -3.5117727301       87.6587574666       -5.2031391915
C                -4.4871675473       86.4886030235       -5.4529101556
O                -4.3321866411       85.3661123009       -5.0040552599
C                -3.0495112393       87.5381623998       -3.7405477470
C                -1.8282811274       88.3293395167       -3.2251070161
C                -2.1889436745       89.6775324684       -2.5891381434
C                -1.0826406440       87.4936989831       -2.1563616371
H                -4.7061688831       89.2246598110       -4.6083472475
H                -2.6804445854       87.5408675325       -5.9065638008
H                -3.9206517432       87.7805741512       -3.1316383156
H                -2.8291700323       86.4778976587       -3.6031632468
H                -1.1408305393       88.4879249718       -4.0599191432
H                -1.3686323567       90.3788625414       -2.6996067284
H                -3.0763402820       90.0950656592       -3.0379222823
H                -2.3674447034       89.5383564458       -1.5242793414
H                -0.2271382895       88.0622519222       -1.8052257391
H                -1.7248046353       87.2659413506       -1.3107985172
H                -0.7265022559       86.5528496315       -2.5687041562
N                -5.5811343532       86.7651645578       -6.1805078758
C                -6.4003099387       85.6598955700       -6.5956007187
C                -5.9163120300       85.1740450321       -7.9537340162
O                -6.3720479102       84.1538605849       -8.4545563531
C                -7.9156543221       85.9617477566       -6.5372906420
C                -8.6262107982       84.6903314116       -6.0819922712
O                -9.2086811652       83.9439564822       -6.8500866093
N                -8.4991732575       84.4421657799       -4.7645314597
H                -5.7911476997       87.6771490215       -6.5523900052
H                -6.1822829869       84.8402620559       -5.8971778672
H                -8.0702962521       86.7713492368       -5.8269583016
H                -8.2915199876       86.2510770111       -7.5175248352
H                -8.9225730427       83.6068520431       -4.3881213097
H                -8.0114606407       85.0621760014       -4.1407412794
H                -5.6919282573       92.1098085679        8.9772554608
H                -6.4854634491       89.4193285758        7.2008791536
H               -10.4624153872       89.8315019306        8.2873015055
H               -10.9593499383       88.1268307200        5.4149124084
H                -5.2172658720       85.6896550655       -8.4491941684
