 355 
 
N                41.5698187675       62.0358087786      -17.5904706055
C                42.8218062799       62.5769015280      -18.0910991627
C                44.0598345592       62.1774987069      -17.3119440704
O                44.9849789367       61.6015727703      -17.8716937558
C                42.9744856507       64.0940604774      -18.0008289602
C                42.3481673724       64.9253282675      -19.1103948173
C                43.1152823653       66.2468837442      -19.2261188397
C                42.3608206570       64.1937146087      -20.4387673640
H                40.9454442687       62.6819468797      -17.1136483163
H                42.9737695591       62.1875396263      -19.1019494609
H                42.5915653893       64.4188711201      -17.0322552627
H                44.0509027985       64.2899371539      -18.0121515642
H                41.3067621687       65.1372290165      -18.8391462282
H                42.6376307871       66.8813194665      -19.9670623629
H                43.1265952770       66.7627046644      -18.2688093055
H                44.1426403672       66.0698128258      -19.5324736949
H                41.8799735563       64.7946718162      -21.2062185776
H                43.3871136221       64.0077741730      -20.7429619810
H                41.8591161563       63.2436735500      -20.3763396280
N                47.9756142437       61.5276398402      -19.4137051939
C                47.7203952579       62.8391860419      -19.9566296738
C                47.5069471027       63.9732822012      -18.9225637255
O                46.7217027181       63.9466642785      -17.9890416458
C                46.4741060088       62.6900135776      -20.8357081281
C                46.7060942113       61.6919266652      -21.9862766573
C                46.0613577974       64.0728229778      -21.3171147522
C                45.7351572469       60.5182968920      -21.9285467773
H                47.5642677238       60.7854705624      -19.9640332136
H                48.5849184775       63.1198519575      -20.5728762995
H                45.6890059887       62.3039867295      -20.1740286504
H                46.5620234263       62.2099554882      -22.9334729774
H                47.7284162712       61.3142139190      -21.9656992173
H                45.2336256124       64.0050984977      -22.0187996600
H                45.7304241777       64.6759959182      -20.4742396324
H                46.8864777413       64.5881268835      -21.7791028932
H                45.8935195653       59.8360904663      -22.7593053891
H                45.8406081897       59.9591756697      -21.0010293633
H                44.7071416594       60.8731411855      -21.9767703161
N                48.2604503116       65.0550846222      -19.2306539152
C                48.2174527268       66.3596837248      -18.5981087294
C                47.1665913040       67.2954099486      -19.2174937996
O                46.6441443331       67.0848701432      -20.3061019998
C                49.5971211423       67.0277492083      -18.7616551269
C                49.6969299479       68.5769125177      -18.4495469874
O                50.1074084249       68.9075698988      -17.3207367023
O                49.4085477005       69.3519165460      -19.3799104632
H                48.7803038642       65.0342703960      -20.0932492519
H                47.9813619227       66.2051498944      -17.5413833209
H                50.3180511023       66.5169801553      -18.1202536012
H                49.9091271925       66.9274610256      -19.8049373981
N                46.9113256916       68.3893968558      -18.4807578769
C                46.2814839400       69.5443975307      -19.1063059333
C                47.1015989982       70.0944408606      -20.3110922925
O                47.0911736822       69.5100006821      -21.3885032793
C                45.9894714995       70.4888451318      -17.9214744354
C                47.0446877135       70.1245186976      -16.8790714806
C                47.1386647743       68.6096737853      -17.0482852743
H                45.3555882418       69.1999876933      -19.5817791385
H                45.9821808902       71.5420819666      -18.1914675028
H                45.0043655531       70.2338776317      -17.5244613120
H                48.0146903239       70.5576470381      -17.1248216266
H                46.7711500370       70.4098878647      -15.8677901583
H                48.1055200065       68.2445018339      -16.7136712552
H                46.3516090849       68.0921016694      -16.4848866398
N                47.6179414104       71.3226488522      -20.1292529507
C                47.9774393729       72.3631705923      -21.0959380488
C                47.8874520800       71.8311521801      -22.5412271391
O                46.8459982146       71.8596643950      -23.1903901869
C                49.3106782124       73.0444732221      -20.7071338709
C                49.2171583230       73.9534751231      -19.4629114332
O                48.1760923881       74.4100799592      -19.0246682499
N                50.3934095072       74.2561763627      -18.8946710035
H                47.7071651111       71.6465285354      -19.1791446113
H                47.1861498531       73.1303634946      -21.0246016495
H                50.0650137686       72.2834553823      -20.5069215696
H                49.6401794438       73.6752296863      -21.5352868187
H                50.3652501894       74.7729814215      -18.0290660918
H                51.2567648223       73.8095901071      -19.1499824942
N                49.0288834477       71.4144670800      -23.0931545572
C                49.0922058663       71.0488832304      -24.5007991874
C                47.9737911374       70.0847738270      -24.9003058076
O                47.3801973258       70.2125460435      -25.9698933970
C                50.4724717306       70.4254124185      -24.8086746297
C                50.8360065486       70.3866929902      -26.2953117772
C                52.2286622028       69.6824590921      -26.6021854610
O                52.3304313990       68.4840307580      -26.2750230481
O                53.0959594489       70.3782646351      -27.1657203390
H                49.8387104445       71.2290398977      -22.5204916596
H                48.9703837573       71.9580122286      -25.1038581931
H                51.2328086628       71.0081769439      -24.2820106374
H                50.4974843610       69.4073121560      -24.4089186855
H                50.0717253641       69.8230710472      -26.8364503162
H                50.8906726390       71.3934475683      -26.7038109295
N                47.7560415253       69.0299746967      -24.1128806709
C                46.8253908093       68.0227315830      -24.5752187171
C                45.5007685374       68.6818297551      -24.8626852750
O                44.7344038346       68.3708471288      -25.7733101277
C                46.7466086395       66.8886140775      -23.5651255680
C                48.0180126429       66.0179611141      -23.6829087179
C                48.8278073833       66.0499918367      -22.3852698067
C                47.6837833397       64.5995133852      -24.1692830333
H                48.0151560145       69.0226849696      -23.1341862694
H                47.1908224342       67.6366360816      -25.5378280431
H                46.6277658337       67.2998266336      -22.5639482664
H                45.8566379594       66.2980252737      -23.7873034609
H                48.6531332993       66.4703969371      -24.4519239053
H                49.3590782633       65.1140218229      -22.2271739009
H                49.5611021665       66.8567323219      -22.4172048318
H                48.1784680441       66.2531396699      -21.5430800552
H                48.3937885258       63.8738500539      -23.7920280634
H                46.6916772837       64.2950946803      -23.8580287466
H                47.6962753587       64.5757096422      -25.2559668225
N                45.1917392945       69.6510516215      -24.0313748031
C                43.9387015860       70.2998658922      -24.2475863626
C                43.9867350671       70.9971741939      -25.6219383882
O                43.1366049456       70.8098431922      -26.4805242880
C                43.6759101395       71.1526486509      -23.0240011588
C                44.0752013817       70.4282698327      -21.7191914194
C                43.4042929625       71.1557994437      -20.5513397816
C                43.7235019246       68.9445758158      -21.6922410123
H                45.8301946601       69.9990802375      -23.3342061020
H                43.1640862957       69.5274404912      -24.3466888687
H                44.2467385478       72.0805995124      -23.0908849036
H                42.6148982985       71.4078123945      -22.9926273029
H                45.1471158756       70.5460908746      -21.5869999362
H                43.7269767355       70.7612590205      -19.5944023431
H                43.6526647493       72.2157370675      -20.5772510615
H                42.3231000006       71.0577579564      -20.6095610597
H                43.8360234040       68.5648321422      -20.6812485159
H                42.6826346705       68.8080075060      -21.9830232542
H                44.3531133569       68.3436401853      -22.3327945818
N                45.0604771194       71.7821324432      -25.8029350830
C                45.3338760516       72.4609485710      -27.0670794988
C                45.0548731891       71.5214717688      -28.2433908663
O                44.4696240582       71.8967929107      -29.2516047575
C                46.7881937973       72.9806743914      -27.1083383493
C                47.2400419158       73.6365309580      -28.4272685177
O                47.2601542157       73.0502829899      -29.4984603567
N                47.6999881333       74.8947614462      -28.2940335550
H                45.7414335394       71.8591514780      -25.0572158247
H                44.6427031074       73.3091004403      -27.1746663219
H                46.9173762254       73.6849933083      -26.2857227191
H                47.4451408889       72.1217991548      -26.9485951490
H                47.9884435563       75.3898831001      -29.1234453130
H                47.6292282653       75.4067568225      -27.4306107331
N                45.4754099738       70.2635295772      -28.0764695807
C                45.4806667039       69.3567131543      -29.2025276673
C                44.0741286671       69.0176426339      -29.6923859072
O                43.8359748477       68.8601784343      -30.8850477651
C                46.1690466705       68.0380995027      -28.8229102121
O                45.3456278947       67.1785645423      -28.1042600519
H                46.0805625465       70.0544159034      -27.2894192395
H                46.0167074932       69.8270673784      -30.0388373092
H                46.4385114405       67.5114411802      -29.7426365399
H                47.0911940297       68.2746448297      -28.2679259433
H                45.0997356392       67.5810372767      -27.2416138713
N                43.1592222774       68.8380592250      -28.7312788167
C                41.7843343317       68.6564027928      -29.1033307523
C                41.0566147308       70.0016774818      -29.3139001276
O                39.8367523062       70.0280698272      -29.3717040970
C                41.0129034743       67.7337808339      -28.1600976687
C                40.6093475286       66.4469325145      -28.8604168965
S                39.4244357885       65.4627218878      -27.9049912961
C                38.0747194252       66.6577079278      -27.7791092280
H                43.3702197123       69.0851740526      -27.7717633699
H                41.8114567791       68.2151753918      -30.1113106876
H                41.6166527279       67.5267298486      -27.2758333327
H                40.1215218540       68.2807253898      -27.8495398832
H                40.1503522609       66.6742126226      -29.8228747769
H                41.4762045067       65.8091245716      -29.0247502145
H                37.2944711997       66.1778240791      -27.2011338168
H                38.4020179832       67.5399426037      -27.2365055515
H                37.7333779455       66.9423927868      -28.7672985360
N                41.8631474957       71.0484014802      -29.5118784586
C                41.4868560105       72.3884146750      -29.8969909189
C                42.2806334868       72.9056926035      -31.1254754770
O                42.2981939952       74.1043760656      -31.3615262699
C                41.6805851410       73.3758697031      -28.7417874781
H                42.8531930615       70.9550052130      -29.3280800151
H                40.4274858690       72.3582134927      -30.1824896826
H                41.3033211641       74.3487020284      -29.0377379877
H                41.1691398109       73.0214624086      -27.8526981809
H                42.7440474301       73.4602272828      -28.5342864894
N                42.8428735184       71.9839434864      -31.9428960573
C                43.6403119861       72.3823440750      -33.0942614390
C                43.6428827775       71.4295275803      -34.3169198032
O                44.1515772476       71.8454832500      -35.3579793726
C                45.0984144995       72.6597947776      -32.6952376544
H                43.0292720592       71.0643771381      -31.5675025536
H                43.2061168417       73.3223445229      -33.4581598855
H                45.6614138811       72.9613784145      -33.5738887845
H                45.1332956142       73.4483967363      -31.9494405350
H                45.5503685399       71.7664420048      -32.2706250086
N                43.1693007643       70.1866975048      -34.2097056993
C                43.1301158971       69.2708563669      -35.3382872398
C                41.7203827765       69.2723690115      -36.0547575977
O                41.7272630804       68.8417872500      -37.2203329314
C                43.5349183661       67.8714868910      -34.8897036932
O                40.7425699121       69.6914321773      -35.4139510590
H                42.6801270472       69.8949857735      -33.3782476167
H                43.8393335759       69.6461267889      -36.0829156146
H                43.4537636085       67.1880905675      -35.7303482671
H                44.5589308150       67.8741413229      -34.5218772339
H                42.8791499071       67.5322966482      -34.0898498516
N                48.2389235787       57.1213601122      -27.9965616487
C                48.0139359174       58.4630921673      -27.5239761066
C                46.9109397034       59.0652779937      -28.3650671199
O                45.8722705751       59.5022952621      -27.8784571002
C                49.2623531846       59.3219467979      -27.5705203045
C                49.2020515559       60.2731102288      -26.3930763823
C                50.5689680477       60.8635038591      -26.0841558081
N                50.6891212164       61.2017157269      -24.6721483725
C                50.7538778582       62.4092589347      -24.1180309738
N                50.5960255258       63.5201755609      -24.8271565293
N                50.9299254026       62.5106414226      -22.7939940620
H                49.1902723855       56.8141913897      -28.1258740170
H                47.6249234192       58.4070391030      -26.4969974971
H                50.1368817927       58.6734712591      -27.4674846318
H                49.3410045542       59.8543970370      -28.5182841028
H                48.4560233409       61.0481720372      -26.5588997626
H                48.8927729746       59.7024069118      -25.5138021476
H                51.3322063937       60.1057925758      -26.2848508678
H                50.7926476691       61.7286584419      -26.7034261814
H                50.7758148471       60.4027989660      -24.0576651640
H                50.3980455983       63.4976738626      -25.8142073147
H                50.7398060029       64.4283723257      -24.4158022140
H                51.1927976343       61.7053844145      -22.2491976275
H                51.1250610207       63.4149245121      -22.3925947413
N                42.5997219512       60.9307796485      -28.1200712640
C                41.9860534038       62.0756540171      -28.7630301858
C                40.7952143476       61.7343871565      -29.6287994078
O                40.2150625253       62.6165430458      -30.2215774150
C                42.9525420450       62.8276666375      -29.6370676196
C                43.8416593128       63.6991759045      -28.7707296755
C                44.4466231926       62.9567457514      -27.5629814081
C                44.9433139845       64.2973910162      -29.6430178574
H                43.5460700352       60.6751242578      -28.3577726559
H                41.5931145985       62.7504003643      -27.9892321976
H                43.5404896606       62.1156229768      -30.2237301071
H                42.3922206467       63.4504649715      -30.3324672735
H                43.2403194935       64.5204318627      -28.3709298002
H                45.1370405182       63.6403221674      -27.0717586078
H                43.6974074187       62.6748829067      -26.8323071196
H                45.0148848269       62.0800538205      -27.8653053637
H                45.4273191534       65.1189197833      -29.1232530663
H                45.6938745012       63.5396786944      -29.8597177311
H                44.5396850028       64.6745711427      -30.5772123978
N                38.0838795767       61.0701850708      -26.1947751357
C                37.8711180759       62.3608603172      -25.6097190447
C                37.1233156578       63.3080935290      -26.5167384017
O                36.3218404253       64.0878130015      -26.0177223814
C                39.2068739732       62.9169175738      -25.1417836270
C                39.6775125563       62.1284863858      -23.9256396242
C                39.7942034024       62.7685150988      -22.6940053997
C                39.9910387009       60.7627913181      -23.9279964449
C                40.1866672523       62.1180290815      -21.5328382550
C                40.4353042896       60.1045763924      -22.7827325774
C                40.5626800916       60.7823059229      -21.5702668796
O                41.0470765080       60.2184886896      -20.4329560895
H                38.9361369049       60.9773383879      -26.7336908937
H                37.2111596999       62.2258542964      -24.7404881685
H                39.9317634582       62.8340134413      -25.9524746308
H                39.0932332149       63.9652327326      -24.8720445499
H                39.5263806235       63.8134841671      -22.6181061821
H                39.9482344222       60.2120381467      -24.8495883465
H                40.1327387440       62.6255533345      -20.5860182441
H                40.7281560236       59.0666814208      -22.8049768055
H                41.3926043095       59.3254431593      -20.6420483565
N                37.3140158477       63.3038615524      -27.8358517878
C                36.3147379337       63.9869517164      -28.6559192087
C                34.9388073621       63.3467802772      -28.3719037289
O                34.0170712866       64.0663353308      -27.9669381610
C                36.7758742044       64.0000699803      -30.1178607401
C                36.2873818441       65.2076157347      -30.9363219778
C                36.6362124297       65.0535354055      -32.4459243914
N                36.4004356135       66.2866924264      -33.2432852761
C                36.3299910315       66.4521851162      -34.5750942877
N                36.3287158853       65.4104722049      -35.4049707006
N                36.2846140144       67.6852644435      -35.1051421125
H                37.7932192098       62.5324885496      -28.2804093637
H                36.2197466403       65.0090180214      -28.2843399839
H                37.8689603691       64.0038057842      -30.0983770425
H                36.4540957957       63.0723774765      -30.5981298362
H                35.2064951056       65.3040936200      -30.8249058541
H                36.7521007249       66.1134853158      -30.5478277047
H                37.6944746054       64.7832620982      -32.5227841728
H                36.0296375017       64.2423740230      -32.8507103737
H                36.3852177474       67.1291011821      -32.6835648966
H                36.4321459912       64.4733053921      -35.0506829511
H                36.3003215051       65.5417620050      -36.4019870856
H                36.1718541311       68.4976022056      -34.5217862960
H                36.1334880632       67.7958656654      -36.0946220226
N                33.6444662861       64.6966940281      -24.9694777553
C                33.1613578548       66.0576022226      -24.9039784693
C                31.7304716845       66.0644038442      -25.4037950805
O                30.7326527737       66.4733613829      -24.8316998630
C                33.8514541085       67.0010178761      -25.8618001372
C                35.1673221716       67.5059880370      -25.3259189453
C                35.5400799363       68.7047267148      -26.1825008721
C                35.1029144404       67.8965399896      -23.8585116941
H                34.5542702692       64.4887866649      -25.3664806487
H                33.1677056543       66.4096428408      -23.8702331162
H                34.0264992377       66.5040914282      -26.8147824986
H                33.1890327902       67.8558724220      -26.0282079188
H                35.9204078742       66.7171401510      -25.4290968686
H                36.5565665149       69.0204001419      -25.9626297262
H                35.4614470225       68.4707525425      -27.2386190512
H                34.8673019411       69.5217697106      -25.9468776407
H                36.0147508066       68.4231586601      -23.5803963299
H                34.2668460820       68.5618296179      -23.6620376316
H                35.0236222468       67.0244815409      -23.2172992554
N                38.5406264264       73.3289310030      -20.6481823139
C                39.9645195563       73.1979735290      -20.4186584156
C                40.3892786123       73.6919986102      -19.0027228208
O                40.8696584835       72.9493197761      -18.1563182911
C                40.6938294862       73.9456016763      -21.5635448410
C                40.0144051606       73.8634131039      -22.9572676990
C                40.9427900033       74.4436751136      -24.0309140788
C                39.6321834034       72.4415858783      -23.3694482873
H                38.2593551275       73.5061283859      -21.6022952083
H                40.2191922781       72.1285490168      -20.4578194568
H                40.7916989662       75.0035240698      -21.3178021563
H                41.7009450058       73.5327601933      -21.6466907270
H                39.1266535188       74.4979423008      -22.9577102299
H                40.4468981028       74.4246693229      -24.9982968553
H                41.1869095752       75.4771222952      -23.8045409657
H                41.8609847450       73.8641488286      -24.1028629216
H                39.3322993110       72.4279247170      -24.4107618508
H                40.4992178915       71.7886883192      -23.2705307711
H                38.8210361949       72.0210221561      -22.7847497812
N                42.9269351071       73.2635587169      -14.9094209965
C                44.1425636127       74.0512283660      -14.8510065099
C                44.1698191264       74.9436481358      -13.5772213818
O                45.2349905421       75.2433208416      -13.0574483076
C                44.2504250489       74.8936854589      -16.1153635040
H                42.1625915856       73.6922002179      -15.4134829404
H                44.9914406373       73.3657171993      -14.7590902285
H                45.2152655375       75.3874760297      -16.1539087904
H                44.1376216325       74.2571968986      -16.9896759241
H                43.4647230915       75.6446776967      -16.1142309274
H                47.8832624776       56.5342336304      -27.4145069473
H                47.0122404218       59.1188670396      -29.3584786050
H                42.6233934695       61.0629185224      -27.2301392569
H                40.4911661715       60.7851327298      -29.7092403184
H                38.1223304782       60.4484991545      -25.5451381989
H                34.8042297104       62.3663684126      -28.5157141294
H                33.6934314719       64.3549516303      -24.1383252157
H                31.5156899849       65.7004411919      -26.3101062904
H                38.1256724059       72.5687964328      -20.4032157940
H                40.2734460416       74.6533647757      -18.7530071597
H                43.0962896063       72.4795360680      -15.3176213635
H                43.3137712952       75.2746734615      -13.1802272453
H                41.0925219984       61.6997277522      -18.2754796112
H                44.1244152224       62.3839985851      -16.3356310375
H                48.8634076777       61.3835872493      -19.3809688284
