 288 
 
N                52.0938750919       39.9973246641       85.5063744050
C                52.9525084232       40.2904328132       84.3750998457
C                52.0754200208       40.9567595035       83.3242594315
O                51.0079724752       40.4489635708       83.0042518763
C                53.5834562016       39.0480136244       83.7340436451
C                54.3304634337       38.1945794789       84.7437765554
C                55.1526598887       37.0462407895       84.0833408641
O                56.0768004990       36.5713649003       84.7741578096
O                54.8319404075       36.7009513775       82.9279499644
H                51.2453841301       39.4910136726       85.2986286111
H                53.7456198452       40.9480696551       84.7467940383
H                52.8064591797       38.4419237552       83.2622155414
H                54.2721305546       39.3617600282       82.9446786245
H                55.0216613857       38.7961096705       85.3373237975
H                53.6367801015       37.7091623579       85.4388349323
N                52.4987206193       42.1385956374       82.8278931044
C                51.7536078139       42.7225154365       81.7170190737
C                52.0883128790       41.9562547800       80.4303553867
O                53.2029155224       41.4619110136       80.2820952612
C                52.0554047094       44.2109568634       81.5178914796
C                51.0403154059       45.0773009757       82.2525253045
S                51.2886141451       46.8547858077       82.0015043310
C                52.8069259700       47.1845024124       82.9557696676
H                53.4861916504       42.3446997766       82.8812531886
H                50.7012484726       42.5692014737       81.9723569750
H                53.0674824811       44.4070895854       81.8778591651
H                52.0370364046       44.4417509800       80.4495020293
H                50.0305637020       44.8948295776       81.8817302486
H                51.0533508145       44.8717444613       83.3234828844
H                52.9914675946       48.2483045931       82.8647802512
H                52.6535853400       46.9061268793       83.9947497093
H                53.6358648528       46.6302137814       82.5288423694
N                51.1167108707       41.8808073029       79.5181775294
C                51.3340722588       41.2681853046       78.2220772762
C                52.0045693469       42.2781458061       77.2753728886
O                52.2024372593       43.4375741858       77.5877047431
C                49.9247213048       40.9221689262       77.7488199320
C                49.1114737466       42.0981724282       78.2898404979
C                49.7660366945       42.4086165045       79.6387070526
H                52.0046981177       40.4101192468       78.3355894636
H                49.8771332302       40.8528507867       76.6658534382
H                49.5928573001       39.9831175265       78.1909152069
H                49.2165281264       42.9556563119       77.6247686360
H                48.0575543791       41.8586656305       78.4056847240
H                49.7816264037       43.4809612893       79.8352688606
H                49.2485010951       41.8923586806       80.4523477724
N                52.2947160961       41.7621887756       76.0611614476
C                53.2075515059       42.3939016216       75.1125586559
C                52.4737868408       42.5529389138       73.7690222117
O                52.3049060731       41.5871077519       73.0200919678
C                54.4793353680       41.5395261581       74.9824533197
C                55.7471781228       42.3613290986       74.7782654360
C                55.7512823265       43.0693303757       73.3897721851
O                55.3439898171       44.2453832163       73.3411366715
O                56.1540099592       42.3886532171       72.4225474859
H                52.1829836088       40.7675626765       75.9267381827
H                53.4607813679       43.3790856157       75.5057100047
H                54.5975400627       40.9530194232       75.9002292042
H                54.3632788864       40.8547861934       74.1372099689
H                55.8530165064       43.1106168324       75.5626087281
H                56.6137722860       41.6966778639       74.8178349085
N                51.9427067569       43.7370201691       73.4875225633
C                51.7592180945       44.9304230553       74.2790790244
C                50.3447848994       45.5172550432       73.8909551513
O                49.8759028015       45.1255835934       72.8028489035
C                52.8019160569       46.0085679430       73.9818283339
O                49.8367959216       46.3085080907       74.6930901008
H                51.4375019750       43.8218600201       72.6021991984
H                51.7549662046       44.6929543517       75.3471428221
H                52.6943571622       46.8183976382       74.6975807895
H                53.8068369468       45.5954831490       74.0368916789
H                52.6532011757       46.3994604790       72.9768224145
N                46.3973687424       42.2576384483       68.9534674942
C                47.8133322574       42.5338753802       68.5611888612
C                48.8220455287       42.3894573127       69.7292394651
O                49.7149260509       43.1928323758       69.9064604885
C                47.8255780616       43.9770996159       68.0357694516
O                46.7162217750       44.0941045373       67.1703446212
H                45.8309463877       42.7470027955       68.2198584485
H                46.1508325798       41.2586985604       68.9712753610
H                46.1860986504       42.6916260015       69.8671508828
H                48.1039834609       41.8490172483       67.7582421014
H                47.7500749006       44.6754887098       68.8780126300
H                48.7761620370       44.1676977235       67.5321846890
H                46.6650833467       44.9892663824       66.8185283437
N                48.6008377876       41.2979878800       70.4785127015
C                49.0646972958       41.1283244741       71.8353249413
C                48.8177690989       39.6541761297       72.1564289493
O                47.9888916313       39.0230536081       71.5143074213
C                48.1543019931       42.0081076893       72.7977801928
O                47.8416430342       43.2567459506       72.2442948576
C                48.7561220989       42.1409819390       74.1943946261
H                47.9297918539       40.5745359974       70.2244855012
H                50.1169395172       41.4055607186       71.9369692592
H                47.1816358002       41.4948780217       72.8637513258
H                48.5920406885       43.8766715984       72.3394793994
H                48.0894896937       42.7413458309       74.8089273968
H                48.9062930583       41.1756895312       74.6673453799
H                49.7083855223       42.6673226681       74.1521798779
N                49.4490621030       39.1494664067       73.2252555692
C                49.1365863013       37.8048337149       73.6965685109
C                47.6168748342       37.6330219221       73.8888903821
O                47.0905991617       36.5407175532       73.8117330981
C                49.8529548242       37.5064180793       75.0117157550
H                50.2719582444       39.6161441095       73.5791546200
H                49.4399593443       37.0602756319       72.9483920597
H                49.6312956813       36.4894418994       75.3221561245
H                50.9298765612       37.5878230141       74.8837796140
H                49.5441380707       38.1833703632       75.8065641386
N                46.9548590532       38.7617434271       74.2114396958
C                45.5151642525       38.8459844535       74.3924063002
C                45.0737973721       38.1864687672       75.7115623276
O                43.9321109646       37.8127217777       75.9097090923
C                44.7486320295       38.2580478448       73.2012887890
C                43.3792693481       38.9149984640       73.0651933397
O                43.1050762160       39.9948695555       73.5637754092
N                42.5132782428       38.2164016620       72.3185154737
H                47.4741726897       39.6211226548       74.2813159719
H                45.2447866414       39.9066830233       74.4640291392
H                45.3274923056       38.4475579767       72.2943087478
H                44.6429530538       37.1814444990       73.3171949512
H                41.5886945952       38.5884377072       72.1718427144
H                42.7634926888       37.3358944859       71.9027653965
N                46.0613181723       38.0782887054       76.6080271888
C                45.9626530127       37.3816032091       77.8648640024
C                46.9611192502       38.0415044103       78.8112568241
O                48.0501681069       38.4226553915       78.3979986259
C                46.3624369914       35.9015924185       77.7181568044
C                45.5237107091       35.1742802298       76.6696919014
C                45.8415690926       33.6785213370       76.6646621653
C                45.1275327936       32.9313848503       75.5477945580
N                43.6623254091       32.8679474388       75.8145060970
H                46.9932254783       38.4083609562       76.3969469301
H                44.9402407163       37.4657216900       78.2417610622
H                47.4217640151       35.8488399419       77.4553984747
H                46.2321058667       35.4343664345       78.6971517289
H                44.4758047873       35.3663969897       76.9013459802
H                45.7534296086       35.5926703827       75.6881008451
H                46.9155368836       33.5567546552       76.5244457069
H                45.5872416861       33.2395980465       77.6309724783
H                45.2997246205       33.4408603869       74.5994085430
H                45.5161750610       31.9152656260       75.4813922659
H                43.1820094685       32.3213389336       75.0843297072
H                43.4992418929       32.4226724438       76.7307735133
H                43.2717175789       33.8213204889       75.8343568444
N                46.5492765086       38.1545760966       80.0751792893
C                47.3997775921       38.6343385782       81.1411563336
C                47.8143139571       37.4199870454       81.9779698643
O                47.0300235317       36.4881450590       82.0894319461
C                46.5983058902       39.6027435061       82.0313212900
C                46.0746610740       40.8011554903       81.2839836355
C                44.9426255716       40.7129913756       80.4802582548
C                46.6931729789       42.0388016939       81.4162460015
C                44.4484266304       41.8304449513       79.8314964255
C                46.2040306228       43.1681772971       80.7833284342
C                45.0689352813       43.0642364947       79.9895176214
O                44.5691042698       44.1998012734       79.4023290794
H                45.6653682015       37.7379477008       80.3515796406
H                48.2682798380       39.1239549642       80.6925286046
H                45.7573254591       39.0456448971       82.4526497251
H                47.2345219846       39.9273670767       82.8558459712
H                44.4303842058       39.7699362590       80.3765827241
H                47.5597574979       42.1350751615       82.0530845180
H                43.5657215317       41.7465809619       79.2143795921
H                46.6902046555       44.1221769812       80.9178258424
H                43.9199370776       43.9446722494       78.7287269428
N                46.5545042749       32.1063132899       82.4413054512
C                46.4547431939       33.1727781984       81.4677548161
C                44.9866454638       33.3221505456       81.0646612216
O                44.3681371445       32.3930875486       80.5726640397
C                47.2415819597       32.8248882870       80.1945744819
C                48.7214309503       32.9528046284       80.3949200344
C                49.3157702292       34.2049496351       80.3043676306
C                49.5097943451       31.8384412090       80.6559901597
C                50.6877000153       34.3340702682       80.4167794187
C                50.8798465329       31.9716753011       80.7918637962
C                51.4754231110       33.2147911756       80.6429079906
H                46.1764921789       31.2119484253       82.1612811229
H                46.8344918941       34.0862699672       81.9308888466
H                46.9734655069       31.8080128351       79.9056397107
H                46.9325220112       33.5265231223       79.4200261656
H                48.7073157943       35.0802370486       80.1322611213
H                49.0578376789       30.8620272563       80.7553178588
H                51.1539678389       35.3026125655       80.3021872766
H                51.4959343300       31.1132613777       81.0101215005
H                52.5529438355       33.2864942519       80.6408228938
N                44.4768308457       34.5495467292       81.2070979562
C                43.0825839309       34.7942404543       80.9194442750
C                42.9216677825       36.0616880986       80.0903719319
O                43.7121498720       36.9923796637       80.1384233034
C                42.2619361124       34.9510633521       82.2060372103
C                42.2721339290       33.7096540359       83.1008596272
C                41.5643168321       34.0541712736       84.4083248550
C                41.6051265411       32.5077908578       82.4344911577
H                45.0192408857       35.2895037339       81.6335147479
H                42.7223325829       33.9250079778       80.3634141272
H                42.6660084233       35.7966871451       82.7665914496
H                41.2299163017       35.1932663587       81.9436403268
H                43.3121120567       33.4516983281       83.3351280610
H                41.6280488127       33.2208709729       85.1041741316
H                42.0162081150       34.9284967672       84.8728706417
H                40.5111218383       34.2633640305       84.2299308067
H                41.5577893455       31.6834573827       83.1415471807
H                40.5925305695       32.7618725474       82.1271483083
H                42.1784629540       32.1707240817       81.5767878818
N                41.8681942529       36.0173215504       79.2507395451
C                41.4622188700       37.2010336951       78.5274613878
C                40.6760203028       38.1523167662       79.4243564677
O                40.2032053019       37.7927254521       80.5010378265
H                41.1342294784       35.3511483038       79.4566834470
H                42.3603225657       37.6977519572       78.1502881790
H                40.8381265732       36.8969612586       77.6849499556
N                40.5208224851       39.3985513234       78.9579933360
C                39.8502500636       40.4067176248       79.7656567596
C                38.4216446066       39.9814677163       80.1205346079
O                37.8916011126       40.3336031545       81.1669029011
C                39.9101542016       41.6880830957       78.9231618916
C                40.1125698058       41.1798202515       77.4952189421
C                40.9742236084       39.9325831442       77.6816854782
H                40.3660565718       40.5244335854       80.7266579218
H                39.0056866876       42.2818422707       79.0398757323
H                40.7563010667       42.2931769209       79.2446198952
H                39.1518940312       40.9209255769       77.0524645874
H                40.5912079369       41.9186428488       76.8587724637
H                40.8437006228       39.2113063973       76.8769294760
H                42.0353328789       40.1918732178       77.7422734771
N                59.3477196066       48.1612192956       72.6398570957
C                58.8376623584       46.9583372489       73.2967796680
C                59.1409543776       46.9465580614       74.8092647653
O                59.9950722139       46.2429759408       75.3239902948
C                59.4399699113       45.7350639962       72.6125325907
C                58.9236045728       44.4300797390       73.2135185922
O                58.2238525916       44.3787409877       74.2077142511
N                59.3508579364       43.3335096873       72.5603646494
H                60.1552010615       48.0384927084       72.0495447637
H                57.7437414736       46.9413270345       73.1978745134
H                59.1895580056       45.7535221221       71.5512945576
H                60.5242752672       45.7459524901       72.7416537306
H                58.8925195670       42.4628724814       72.7783347429
H                59.7884722064       43.4142061605       71.6588263177
N                58.3894037253       47.7762156745       75.5338394636
C                58.7552935894       47.9616131251       76.9115013542
C                58.3996229201       46.7832016728       77.8092000170
O                59.0077899730       46.6448220648       78.8704989648
C                58.2200554553       49.2793500792       77.4619061473
C                56.7043821603       49.2865899203       77.4865382989
O                56.0442850027       49.1431062048       76.4669549202
N                56.1451840873       49.4880523431       78.6906331766
H                57.7328555855       48.4168328765       75.0962670536
H                59.8569489891       47.9998670053       76.9476492015
H                58.6476182458       49.4495622352       78.4482342556
H                58.5437149556       50.0673291341       76.7802523692
H                55.1393586820       49.4823064955       78.7630901589
H                56.6873967225       49.5040494365       79.5385345059
N                57.4620386387       45.9043513961       77.4386339336
C                57.2762125821       44.7090981206       78.2357884697
C                58.0450352217       43.5060289084       77.6803260410
O                57.6447045107       42.3723889506       77.9117116624
C                55.7654736117       44.4517654299       78.2818329343
C                55.1737571037       45.4668178094       77.2980337030
C                56.3729279683       45.9703708335       76.4820330991
H                57.6971322015       44.9100681577       79.2243384079
H                55.5565865462       43.4247845891       77.9845945437
H                55.3659621958       44.5924096890       79.2824829345
H                54.4114104756       45.0354101526       76.6557375528
H                54.7238108508       46.3035234474       77.8313955472
H                56.5830281199       45.3142339943       75.6308504370
H                56.2078026240       46.9758718300       76.1074985357
N                59.2273763284       43.7485301818       77.0871837039
C                59.9851110729       42.6029270557       76.6167828619
C                60.0624518703       41.6111212353       77.7664933483
O                60.3791781109       41.9867561109       78.8918189819
C                61.4372118905       42.9566662236       76.2513650421
O                61.4004573355       43.7011196794       75.0558456538
C                62.3009202074       41.7067131203       76.0562468020
H                59.4182167892       44.6357041966       76.6377959766
H                59.4947669826       42.1685279354       75.7352057476
H                61.8497167648       43.5612035147       77.0736445403
H                62.2486666239       44.1422146839       74.9398562901
H                63.2731270037       42.0140626173       75.6740271707
H                62.4468206781       41.1762701403       76.9923001929
H                61.8402921516       41.0440843106       75.3296299967
H                58.7069332839       48.5105634856       72.1132153526
H                59.8546853812       40.6457278101       77.6088588960
H                52.5438808203       39.4959524678       86.1031329535
H                48.7110361429       37.4000264788       82.4201133899
H                47.4202769083       31.9596888195       82.6386351545
H                37.9011020875       39.4038831888       79.4917010850
