 99 
 
N                20.5690000000       44.1210000000       15.0830000000
C                20.4450000000       44.3320000000       16.5360000000
C                19.3630000000       43.4530000000       17.1190000000
O                18.2400000000       43.3940000000       16.6150000000
C                20.1040000000       45.8300000000       16.7800000000
C                20.0980000000       46.1540000000       18.2580000000
C                19.8030000000       47.6490000000       18.4610000000
N                20.9500000000       48.3720000000       18.0120000000
C                20.9610000000       49.6410000000       17.6050000000
N                19.8920000000       50.4080000000       17.7910000000
N                22.0720000000       50.1510000000       17.0980000000
H                20.2130000000       44.8300000000       14.4440000000
H                21.4050000000       44.0620000000       16.9860000000
H                20.8170000000       46.4500000000       16.2380000000
H                19.1130000000       46.0100000000       16.3600000000
H                19.3160000000       45.5780000000       18.7550000000
H                21.0500000000       45.8990000000       18.7220000000
H                18.9250000000       47.9270000000       17.8720000000
H                19.5900000000       47.8540000000       19.5160000000
H                21.8440000000       47.9360000000       18.1990000000
H                19.0040000000       50.0270000000       18.0700000000
H                19.8290000000       51.2920000000       17.3070000000
H                22.9390000000       49.6440000000       17.0280000000
H                22.0660000000       51.1320000000       16.8320000000
N                19.7300000000       42.7450000000       18.1980000000
C                18.7420000000       41.9310000000       18.9140000000
C                18.0460000000       40.9160000000       18.0170000000
O                16.9310000000       40.4640000000       18.3330000000
C                17.6060000000       42.7050000000       19.6180000000
C                16.8780000000       41.9240000000       20.7160000000
O                17.6010000000       41.3980000000       21.6340000000
O                15.6330000000       41.8410000000       20.7140000000
H                20.6520000000       42.8590000000       18.6230000000
H                19.2980000000       41.3600000000       19.6660000000
H                18.0390000000       43.5790000000       20.1150000000
H                16.8680000000       43.0380000000       18.8900000000
N                14.4680000000       39.1480000000       18.8990000000
C                13.4420000000       39.6780000000       18.0130000000
C                13.0630000000       38.6310000000       16.9570000000
O                11.8920000000       38.5120000000       16.5680000000
C                13.8820000000       41.0150000000       17.3950000000
O                13.9490000000       41.9610000000       18.4670000000
C                12.8990000000       41.5080000000       16.3470000000
H                15.3780000000       39.5900000000       18.8900000000
H                12.5380000000       39.8590000000       18.6110000000
H                14.8820000000       40.8920000000       16.9540000000
H                14.6760000000       41.7780000000       19.0930000000
H                13.1990000000       42.4990000000       16.0210000000
H                12.8870000000       40.8300000000       15.5020000000
H                11.9040000000       41.5660000000       16.7780000000
O                15.5130000000       43.9370000000       16.9570000000
H                16.4470000000       43.7710000000       16.7620000000
H                15.2370000000       44.6470000000       16.3750000000
N                11.9162455690       47.3994441793       19.2490000000
C                12.2732417955       46.1691085770       20.0030000000
C                11.1303606759       45.6986367432       20.9440000000
O                11.0296954521       44.5169940253       21.2570000000
C                13.5313190675       46.4520548219       20.8230000000
C                13.9599274533       45.2676833212       21.6950000000
C                14.6681543493       44.2689983540       20.7970000000
C                14.8575868317       45.7108916700       22.8850000000
H                12.3980011369       48.2630190590       19.4830000000
H                12.4312450635       45.3654388890       19.2790000000
H                14.3349861781       46.7220625541       20.1380000000
H                13.3179593931       47.3196046184       21.4530000000
H                13.0824379479       44.7795397277       22.1230000000
H                14.9863223355       43.4019152366       21.3660000000
H                14.0188577284       43.9276130907       19.9960000000
H                15.5516534737       44.7167329822       20.3470000000
H                15.1486400812       44.8327726542       23.4520000000
H                15.7491647944       46.2106333397       22.5160000000
H                14.3025131481       46.3823074918       23.5330000000
N                13.5539233097       48.4789031261       13.4590000000
C                14.4430988430       47.8468059256       14.4800000000
C                14.8737467156       48.8229019300       15.5500000000
O                14.8167474062       48.5036276298       16.7400000000
C                15.6752352099       47.1586831362       13.8710000000
C                15.1803175013       45.9919057531       12.9810000000
C                16.6133241727       46.7118653905       15.0050000000
C                16.3193032331       45.4151245965       12.1140000000
H                13.9679353209       49.1798132876       12.8520000000
H                13.8194894461       47.0849290851       14.9600000000
H                16.2017779648       47.8806843324       13.2370000000
H                14.7682003722       45.1997135593       13.6090000000
H                14.3957067232       46.3448914849       12.3110000000
H                17.3418471842       46.0020265202       14.6280000000
H                17.1571130616       47.5719954065       15.3950000000
H                16.0466781869       46.2773250280       15.8210000000
H                15.9313726376       44.6230400978       11.4770000000
H                16.7311261335       46.1898264092       11.4720000000
H                17.1202896556       45.0057754166       12.7200000000
H                21.4382634200       44.0401507104       14.8642661459
H                18.4853026216       40.6114506852       17.1718592298
H                14.1880342714       39.2074026918       19.7522821989
H                13.7652834104       38.0321062188       16.5721308660
H                12.0795427589       47.2729688609       18.3730216774
H                10.4703987474       46.3608204624       21.2989126300
H                13.2314165730       47.8448525017       12.9076659720
H                15.2061344724       49.7306873263       15.2941796462
