56
Properties=species:S:1:pos:R:3 pbc="F F F"
N      29.75900000      12.53300000       4.81500000 
C      30.66000000      12.61800000       5.92900000 
C      29.97400000      13.22600000       7.13200000 
O      30.22100000      12.83100000       8.29000000 
C      31.86700000      13.47100000       5.61900000 
C      32.65600000      13.03200000       4.39800000 
C      34.13100000      13.04500000       4.70100000 
N      34.41400000      11.80800000       5.42800000 
C      35.53900000      11.52000000       6.06000000 
N      36.43600000      12.46500000       6.29600000 
N      35.74900000      10.26700000       6.45000000 
H      29.95500000      13.02300000       3.96500000 
H      30.97000000      11.62700000       6.22000000 
H      31.54200000      14.49200000       5.48800000 
H      32.50000000      13.44000000       6.49300000 
H      32.36400000      12.03900000       4.08300000 
H      32.44600000      13.68300000       3.56600000 
H      34.72700000      13.07400000       3.81100000 
H      34.37700000      13.89600000       5.31100000 
H      33.75400000      11.07300000       5.31900000 
H      36.19100000      13.44200000       6.25800000 
H      37.30000000      12.22700000       6.72400000 
H      35.13700000       9.53600000       6.17300000 
H      36.55200000      10.02800000       6.98200000 
O      35.97400000      15.19600000       6.65500000 
H      36.89900000      15.41400000       6.70100000 
H      35.53100000      15.79400000       6.03000000 
N      37.30200000      18.32200000       8.65700000 
C      38.16300000      17.14200000       9.01700000 
C      39.60400000      17.54600000       9.23900000 
O      40.42800000      17.43500000       8.31800000 
H      36.75100000      18.12000000       7.84100000 
H      36.67300000      18.55300000       9.40800000 
H      37.84000000      19.15200000       8.45300000 
H      37.74300000      16.69000000       9.89400000 
H      38.13700000      16.46100000       8.19200000 
N      38.56400000      19.70200000       5.33400000 
C      37.55400000      19.33000000       4.36700000 
C      37.60600000      20.27500000       3.20700000 
O      37.57200000      19.87200000       2.03200000 
C      36.18100000      19.40400000       5.02900000 
C      35.02500000      19.13100000       4.08300000 
C      34.78300000      17.66000000       3.84600000 
O      34.94400000      16.88300000       4.84400000 
O      34.39500000      17.30700000       2.69500000 
H      38.28200000      20.16200000       6.17500000 
H      37.75400000      18.34600000       3.98500000 
H      36.14700000      18.68200000       5.82500000 
H      36.07300000      20.38900000       5.45300000 
H      34.12000000      19.52200000       4.52900000 
H      35.15100000      19.62400000       3.13300000 
H      29.68417254      11.67495645       4.55392125 
H      29.30670889      13.96054562       7.00885254 
H      39.89211832      17.90237160      10.12781219 
H      38.99758244      18.96480222       5.61426006 
H      37.66989958      21.26004187       3.36702923 
