 423 
 
N                51.5024667617       12.5634118044       -0.5715090865
C                51.7002944732       13.9838925017       -0.2863464701
C                51.6217076304       14.1872251362        1.2147804265
O                52.5119398195       14.8197497344        1.7843229757
C                50.8686111826       14.9376890803       -1.1503647211
C                49.4143842164       14.8750418203       -0.7666803466
C                51.0987111462       14.6500586936       -2.6333488096
C                48.6059081227       15.4741102909       -1.8949383937
H                50.9574242599       12.2745102414       -1.3710726907
H                52.7539083973       14.2205452242       -0.5212279847
H                51.2659899670       15.9392271576       -0.9429826462
H                49.1041500235       13.8483898890       -0.5984909613
H                49.2394322987       15.4319599339        0.1556654110
H                50.7589511612       15.4714557700       -3.2479107187
H                52.1623461134       14.5234009563       -2.8108083273
H                50.6060460509       13.7342639104       -2.9506429220
H                47.5766591685       15.6728601073       -1.5851437161
H                49.0212834475       16.4316470125       -2.2051093925
H                48.5647682127       14.8212194711       -2.7574196940
N                50.5780309610       13.6297122510        1.8333410616
C                50.5635237752       13.6029751719        3.2836614817
C                51.9485526777       13.3786320495        3.8666544273
O                52.4454824353       14.1259385679        4.7047902078
C                49.7156326050       12.5156939517        3.9364340925
C                48.2236642134       12.7507323119        3.6365186053
C                50.0022587824       12.4878483483        5.4415330216
C                47.7468378759       14.1488216004        3.9327122980
H                49.9669620151       13.0036200758        1.3233302668
H                50.2433795154       14.5881588973        3.6542566204
H                49.9993124417       11.5473717309        3.5127612938
H                48.0278525020       12.5223631904        2.5852566121
H                47.6619226773       12.0378590237        4.2372199993
H                49.2490779930       11.8963702762        5.9586708290
H                50.9679268833       12.0427096543        5.6532949662
H                49.9916341818       13.4920999824        5.8605535201
H                46.6646601187       14.1770438612        3.9190017284
H                48.0625458358       14.4625753999        4.9285673030
H                48.1093580804       14.8735443455        3.2087134150
N                52.5408815342       12.2358326100        3.5128490964
C                53.9099418983       12.0404649389        3.9515588306
C                54.9674260390       13.1312082291        3.5733988950
O                55.8131725294       13.4774914623        4.3930944334
C                54.3092709120       10.5894679418        3.6335470193
S                53.3920960301        9.6516602018        4.9342982857
H                52.1832384782       11.6627614669        2.7613516364
H                53.9055123991       12.1198068918        5.0508330974
H                53.9601501947       10.2924150496        2.6481458587
H                55.3779777981       10.4205208452        3.7706887767
H                54.1055655510        8.5267887518        4.8640704109
N                54.9865186742       13.6833820086        2.3659991176
C                56.0543487195       14.6040398144        2.1776869014
C                55.9967289087       15.7716062523        3.1574186640
O                57.0261718076       16.3539891410        3.5117737876
C                56.0411296437       15.2276098352        0.7885760511
O                57.2370687146       16.0019702114        0.6902829628
H                54.2418935087       13.5350104510        1.6898889441
H                57.0207982491       14.1248993795        2.3738920347
H                56.0216074336       14.4399676701        0.0298273188
H                55.1410174944       15.8403174086        0.6599046223
H                57.4057230832       16.2393629536       -0.2339747776
N                54.7575729005       16.1730864773        3.4630522985
C                54.4883489832       17.1903663142        4.4891451300
C                55.0834314129       16.8506332051        5.9175434372
O                55.7932840108       17.6867337108        6.5049352647
C                52.9605295124       17.3097773246        4.5622278207
C                52.4012519859       18.0926759404        5.7695094701
C                52.6895910018       19.5784232648        5.5285961859
C                50.9012413736       17.7841236900        5.9363004018
H                53.9566663136       15.6539063894        3.1228710654
H                54.9671790730       18.1271429990        4.1841318518
H                52.6183873187       17.7857125497        3.6465474717
H                52.5619998906       16.2936557764        4.5932352183
H                52.9206466126       17.7643745151        6.6681711769
H                52.2642191994       20.1947765037        6.3178342628
H                53.7590797151       19.7500704454        5.4926863747
H                52.2569560496       19.8943873491        4.5820535708
H                50.4752622770       18.3442201078        6.7607796088
H                50.3746118141       18.0759112831        5.0283535240
H                50.7525587652       16.7202453448        6.0839608230
N                54.6717889404       15.6527814185        6.4160574754
C                54.9549245997       15.2237795253        7.7648973917
C                56.3808466503       14.7885043971        7.9457677145
O                56.9385900888       15.2071853063        8.9787808317
C                53.8917638601       14.3232524554        8.4326351262
C                52.8892738990       13.8222816964        7.4142720541
C                54.4771481910       13.2113660921        9.2918398077
H                54.1533001580       15.0384730754        5.7984750778
H                54.9517054645       16.1678914811        8.3404511614
H                53.3267753174       14.9706352362        9.1215613798
H                52.1163475681       13.2323220114        7.9095339228
H                52.4002749839       14.6418297126        6.9028517464
H                53.3666510547       13.1737558718        6.6872687328
H                53.6726462432       12.6681113824        9.7794218103
H                55.0332923889       12.4995205711        8.6791680257
H                55.1511238740       13.6012918148       10.0455792696
N                57.0374153459       14.1580127326        6.9830904852
C                58.4665261302       14.0137494012        7.1517160033
C                59.3105287506       15.2811600074        6.8054590086
O                60.4976038427       15.2533026030        7.0967956455
C                59.1184474473       12.8444983255        6.3791486372
C                58.6142005885       11.4159873619        6.5746911995
C                58.3156391103       10.6986935595        5.1461330811
O                58.2797091564       11.3698978201        4.0805090184
O                58.0914341558        9.4714031869        5.2043718082
H                56.5920670227       13.8360643998        6.1230922628
H                58.6428128907       13.8577278290        8.2249667865
H                58.9834020782       13.0678991079        5.3069086135
H                60.1870588182       12.8986962101        6.5877360510
H                59.3178777332       10.7872715586        7.1103185309
H                57.6585951703       11.3905119289        7.1016699903
N                58.7877288954       16.3871349035        6.2235851698
C                59.7144343433       17.4010471377        5.6926487545
C                59.5517728992       18.8250863482        6.2456897376
O                60.4897759069       19.6056240346        6.3008708044
C                59.5827677112       17.4526711423        4.1719982538
C                60.3443125031       16.2712164380        3.5406535590
O                61.5348015378       16.0868914987        3.7961233331
N                59.6296542564       15.5095365453        2.6706124170
H                57.8798910528       16.3240863963        5.7805719664
H                60.7231346709       17.0590470509        5.9527009251
H                58.5435846259       17.4698323817        3.8696628044
H                60.0796943799       18.3591300039        3.8204958509
H                60.0576014858       14.6493133882        2.3660583883
H                58.6313752571       15.6757721522        2.5918531965
N                58.2823533966       19.0858853647        6.5723316407
C                57.7801424335       20.2622954663        7.2314423528
C                57.4903621574       19.9977225814        8.7016972298
O                58.3129129916       20.3239290668        9.5495415845
C                56.6012986499       20.7350812677        6.4110654457
C                57.2937264593       21.3662020654        5.2126797440
C                55.7361046569       21.7028221072        7.1538200853
C                56.3956442357       21.8856545841        4.1030364088
H                57.5958196328       18.3506835728        6.4441208952
H                58.5917544866       21.0008988700        7.2283327061
H                56.0156041050       19.8750877996        6.0852353840
H                57.8987963524       22.2062728489        5.5547036499
H                57.9658067468       20.6243823483        4.7714158598
H                54.9459728393       22.0740451707        6.5017704277
H                55.2568431785       21.2679097042        8.0210311272
H                56.3178999931       22.5636631569        7.4816778212
H                56.9902489081       22.1486878729        3.2339163685
H                55.6617363697       21.1384518631        3.8001858039
H                55.8540224898       22.7739424983        4.4196872225
N                56.3052721221       19.4344371596        8.9659530375
C                55.7442652512       19.3041539161       10.3045022704
C                56.6606287767       18.6357833675       11.2999110634
O                56.6322088919       18.8741025883       12.5057643750
C                54.5535285156       18.3430582033       10.2911728509
C                53.5216110990       18.6656882016        9.1419724224
C                53.9792813467       18.1614764149       11.7018332942
C                52.0581527738       18.9735313661        9.4937218900
H                55.8218280330       18.9863945670        8.1979394382
H                55.4570725870       20.2921456298       10.6767987317
H                54.9839008273       17.3654443312       10.0207820477
H                53.8852502925       19.5019401720        8.5503856853
H                53.5068710772       17.7869167177        8.4962444261
H                53.0971045303       17.5274973206       11.6591956927
H                54.6955865047       17.6935937096       12.3645321560
H                53.7003505814       19.1267889774       12.1167975365
H                51.4932324813       19.0394851143        8.5715280014
H                51.6127973617       18.2241688728       10.1340557198
H                51.9892170868       19.9338800132       10.0016151606
N                57.4657966236       17.6964055151       10.8144555351
C                58.3248518656       17.0269002416       11.7441034770
C                59.6284458814       17.7616538074       11.9610362405
O                60.1558466915       17.6102434360       13.0605694763
C                58.7340462713       15.6117987057       11.3604927188
C                57.6641296969       14.6119597834       11.7262774125
S                58.2661044231       12.8416698302       11.6124300446
C                58.9957717163       12.5606463519       13.2788453438
H                57.3757196432       17.2992654555        9.8869366254
H                57.8276683901       16.9957115975       12.7215659870
H                58.9292577678       15.5385864966       10.2905384311
H                59.6463579963       15.3528274126       11.9017381378
H                57.3273969251       14.7502831959       12.7511022124
H                56.8305447045       14.6593247787       11.0341739264
H                59.6386135236       11.6946589102       13.1891498451
H                59.5648951035       13.4315139604       13.5778093251
H                58.2053048163       12.3401219300       13.9893777215
N                60.1408557897       18.5760694540       11.0230820117
C                61.1665314118       19.4364802184       11.5188709905
C                60.5176780015       20.3243140075       12.5717930825
O                61.1570633332       20.7391699441       13.5405239018
C                61.6723863799       20.1805022094       10.3045208787
C                61.6025799687       19.1292230781        9.2332086640
C                60.3138627799       18.3879492099        9.6002728601
H                61.9649400449       18.8753460312       12.0213158489
H                60.9804969375       20.9905753386       10.0589753030
H                62.6793671543       20.5608034007       10.4534786079
H                61.5550783538       19.5281262424        8.2230186379
H                62.4516817507       18.4474173657        9.2955945715
H                59.4768030832       18.7766984499        9.0367651128
H                60.3919116033       17.3179993277        9.3516101541
N                59.2488759382       20.7511359726       12.3755107800
C                58.8001046613       21.8654934500       13.2629359795
C                58.8499630588       21.4301102205       14.6895774163
O                59.5688860256       21.9973903914       15.5001134776
C                57.4404965062       22.4588600104       12.9390955480
C                57.5007783089       22.9879013667       11.5107618857
C                56.0804274474       23.3259105854       11.1099820762
C                58.4809730226       24.1311730770       11.3839525759
H                58.6878261144       20.4233593655       11.5945810937
H                59.5922660889       22.6227085557       13.1976688608
H                56.6781423922       21.6865229229       13.0309790095
H                57.2287835505       23.2541851713       13.6501057615
H                57.8314627890       22.1697811632       10.8608917301
H                56.0350713971       23.7359083170       10.1016204258
H                55.4525162486       22.4397958398       11.1365472646
H                55.6496616088       24.0589858724       11.7899293742
H                58.6618296032       24.3442713635       10.3376051677
H                58.0602771217       25.0276862672       11.8448957167
H                59.3920281902       23.8935028810       11.9127160685
N                58.0398098925       20.4314795688       14.9856700430
C                57.9629887141       20.0164389181       16.3398740790
C                59.3187452623       19.6274655137       16.9624053291
O                59.4025847811       19.3686245345       18.1551961572
C                56.8833081794       18.9625396658       16.4584330823
C                55.5327797896       19.4893984842       15.9501575579
C                56.7659827191       18.5608704443       17.9132351532
C                54.5775109781       18.3537706685       15.5535059372
H                57.6008368659       19.8714188900       14.2648033359
H                57.6500978541       20.8867997608       16.9474923693
H                57.1784328150       18.0849735154       15.8701292358
H                55.0637301050       20.0921236712       16.7295028714
H                55.6714590033       20.1126539903       15.0680872119
H                56.0068917295       17.7868593335       18.0455854908
H                57.6877532135       18.1660641835       18.3232593601
H                56.4637680011       19.4144275810       18.5193398253
H                53.6398467915       18.7539845949       15.1759847501
H                55.0289214493       17.7424249211       14.7735463888
H                54.3578855078       17.7054759946       16.3972678067
N                60.4015967801       19.6988049428       16.1800138679
C                61.7019043938       19.4142869694       16.7059189211
C                62.6833140414       20.5786519450       16.6435103816
O                63.8524454708       20.3659305656       16.9663088194
H                60.3331761391       19.7227279886       15.1725779021
H                61.5838917562       19.1817768600       17.7691907548
H                62.1482256978       18.5448945008       16.2040387646
N                62.2000432507       21.7487582736       16.1950818393
C                62.8791367176       23.0264728176       16.3685140849
C                62.2017185572       23.9232864549       17.3934466932
O                62.9210594408       24.7454894723       17.9410534068
C                63.1001246151       23.8810876912       15.1023050118
C                64.0830949506       23.1595089603       14.1822103503
C                64.6157417825       24.0113088365       13.0383317779
C                65.2292682852       23.1070829268       11.9686853948
N                66.6507971420       22.7655508409       12.2583062290
H                61.2647861651       21.7425956946       15.8061399721
H                63.8599680198       22.7775136653       16.7945293358
H                62.1375020173       24.0396498993       14.6168745943
H                63.5027747453       24.8336815660       15.4433971010
H                64.9052546529       22.8055828792       14.8040004470
H                63.5652208361       22.2740695680       13.8048773064
H                63.7983412333       24.5963439608       12.6333078848
H                65.3515016354       24.7195202448       13.4194353195
H                64.6709326011       22.1677799449       11.9243119322
H                65.2259307485       23.5742396956       10.9879077961
H                67.0601609096       22.1870239268       11.5113149811
H                67.2252143425       23.6151641448       12.3888984219
H                66.6993957284       22.2243615366       13.1385583045
N                51.0697230437       11.9513402764       12.2301878612
C                50.5195497080       11.7065053041       10.9076092080
C                49.0042817556       11.9067489344       10.8420054953
O                48.4779604757       12.2576484468        9.7838843038
C                50.7872272552       10.2555582768       10.4224856169
C                50.5619761725       10.1673774766        8.9194901038
C                49.8762749890        9.2164440918       11.0583064788
C                50.7757227389        8.7441715550        8.3997615082
H                51.4062923148       11.1310734181       12.7251645703
H                50.9769876117       12.4107140421       10.1991988728
H                51.8312047317       10.0247427494       10.6588749833
H                49.5442999818       10.4870415677        8.6863301018
H                51.2447954647       10.8420972696        8.3939491388
H                50.3324507650        8.2373910804       10.9680425732
H                49.7286185537        9.4472919395       12.0882970440
H                48.9081588425        9.2048228279       10.5593953384
H                50.7980581257        8.7509113139        7.3125898077
H                51.7309075520        8.3639941685        8.7571591156
H                49.9835922784        8.0738761355        8.7137672916
N                47.2631631552       14.1099934665       12.9892558911
C                47.3174614514       15.5467444169       12.9653171085
C                47.6935865893       16.1454742442       11.6080236050
O                47.0106340377       17.0462584430       11.1215715318
C                48.3481255146       16.0335219456       13.9611769405
C                48.8232411711       17.4232941067       13.6330096285
C                48.0199629575       18.5212267558       13.9083061212
C                50.0976862449       17.6472430555       13.1321669013
C                48.5024653771       19.8158387782       13.8105086109
C                50.5953569962       18.9376607918       13.0697671432
C                49.8203709670       20.0197893440       13.4511279816
H                47.8787962466       13.6339032249       13.6377375868
H                46.3200031663       15.9515517978       13.1955124724
H                47.9393481659       16.0092074622       14.9724338252
H                49.2065847879       15.3606905580       13.9143749623
H                47.0083927748       18.3504398187       14.2523741926
H                50.7233950054       16.8075321347       12.8644378276
H                47.8660887287       20.6481494817       14.0615357483
H                51.6075641682       19.0994939152       12.7378976047
H                50.2341241172       21.0140379555       13.4263337057
N                48.7829183022       15.7412368270       10.9737793726
C                49.0846530234       16.4325853967        9.7349411052
C                47.9650005737       16.2824471384        8.7128698095
O                47.8567714646       17.1174371811        7.8213936194
C                50.3768477321       15.9889252698        9.0694874218
H                49.4262939166       15.0507311836       11.3435955535
H                49.1503966952       17.5075269121        9.9606804668
H                50.5772455017       16.6292978021        8.2219040312
H                51.2064590734       16.0477474994        9.7714230769
H                50.2895591311       14.9571928645        8.7290500708
N                45.7099341553       19.6651125688        9.8317435108
C                46.1840708301       20.9008826072        9.2266211214
C                46.0722828137       20.8597062618        7.6887047956
O                45.7601397301       21.8686155737        7.0668533540
C                47.5873469616       21.4677049862        9.6344106830
C                48.3217705183       22.0622566746        8.4142301158
C                48.4727630906       20.4526570271       10.3061457060
C                49.7180625171       22.5128170426        8.7541271990
H                46.3743181747       19.0089276869       10.2262522200
H                45.4430949538       21.6683556888        9.4919693919
H                47.4215906377       22.2810792530       10.3450229172
H                48.3779598918       21.3234943435        7.6122113901
H                47.7465193608       22.9073788974        8.0405093782
H                49.3849386127       20.9156894278       10.6590850031
H                48.0021950294       19.9745577558       11.1627550952
H                48.7553906881       19.6686166177        9.5970391560
H                50.1004575164       23.1674338845        7.9712101157
H                49.7350714238       23.0745309552        9.6851432460
H                50.4058964819       21.6760840525        8.8351341687
N                46.3505522686       19.7273239666        7.0390323936
C                46.3327513152       19.7948942919        5.5902031848
C                44.9175984320       20.0999920266        5.0981145623
O                44.7702161982       20.8316477791        4.1171452309
C                46.8273356262       18.5032192158        4.9173797741
C                46.5293599957       18.4858936802        3.4272294803
C                47.5747642423       18.4669725276        2.5163104809
C                45.2140956903       18.4137280317        2.9676549399
C                47.2864099307       18.3867705988        1.1743892043
C                44.9269918961       18.3955046057        1.6315120916
C                45.9694620810       18.3683455411        0.7411274998
H                46.7209306671       18.8898252100        7.4688895696
H                46.9520392524       20.6412797674        5.2597217199
H                47.8943098953       18.3865155070        5.0978310768
H                46.3079149456       17.6664109228        5.3932530813
H                48.5960275209       18.4975401522        2.8646463194
H                44.4145061367       18.3039747017        3.6823646285
H                48.0878759181       18.3374586258        0.4506247718
H                43.9079999664       18.3694106585        1.2822126281
H                45.7719401863       18.3257417379       -0.3221065870
N                62.9608752443       23.9626166922        6.2219453464
C                61.9086603005       23.0938031418        5.7791968139
C                62.1698225032       22.7590566947        4.3161336775
O                63.2734420736       22.8845321287        3.8257255227
C                60.5216488047       23.6726342478        6.1083068226
C                60.5503883149       24.5650970015        7.3256790040
C                60.9157267892       23.7766417161        8.5687560385
C                61.4447942425       24.7927269491        9.5686077707
N                61.8037720311       24.2575705952       10.9330969647
H                63.1278110600       24.7971774562        5.6803728673
H                62.0404372238       22.1449340684        6.3190781955
H                60.1384228724       24.2452896241        5.2582568409
H                59.8355537531       22.8426969044        6.2868025996
H                61.2598946407       25.3745922795        7.1645898548
H                59.5653787604       25.0178846631        7.4428794741
H                60.0386270999       23.2558000035        8.9536594483
H                61.6750875150       23.0287419554        8.3448178530
H                62.3256797612       25.2901345101        9.1569512675
H                60.6885367495       25.5674078195        9.7172245758
H                62.0710440957       25.0536126975       11.5305803566
H                60.9757473170       23.7915351371       11.3457983833
H                62.5525646394       23.5540433840       10.8599295443
N                61.0248860251       22.4200400354        3.6695944844
C                61.0011825443       21.9357599347        2.3148965159
C                59.7227468094       22.1357643526        1.4397963372
O                58.5754744001       21.8616175633        1.7167893009
C                61.4016844246       20.4592087020        2.3879112770
C                62.8861025065       20.2447352444        2.5746425526
C                63.3862858410       19.2500742553        3.4222143110
C                63.7753597536       20.9252990942        1.7524562806
C                64.7276691705       18.8948238118        3.3960276196
C                65.1262084956       20.6103422628        1.7605115228
C                65.6255822419       19.5633204278        2.5454037299
O                66.9603737722       19.2276854891        2.4771016813
H                60.2327891998       22.1451105868        4.2357157725
H                61.8038772666       22.4638866638        1.8034451458
H                60.8646314954       20.0008618842        3.2217378554
H                61.0948799434       19.9419697924        1.4803403972
H                62.7192043577       18.7072411811        4.0710459664
H                63.4493375827       21.6881903608        1.0620257311
H                65.0890418825       18.0904169491        4.0134810889
H                65.8017345964       21.1711884122        1.1265668997
H                67.3942755027       19.7852382814        1.8228897207
N                58.1111851488       18.9377856780       -0.0991034970
C                56.6295700269       18.9653388899       -0.0586658385
C                56.0116173056       19.1192120646       -1.4313721733
O                55.1608928228       18.3563765464       -1.8857555092
C                55.9911259723       20.1713423683        0.6921318723
C                54.4742197927       19.9978830169        0.7757320084
C                53.8805948474       18.8238309911        1.2400411313
C                53.6196164945       21.0403684078        0.4690515577
C                52.5068274447       18.6908314793        1.3308232390
C                52.2388128883       20.8982322991        0.5717487199
C                51.6566845438       19.7194047212        0.9756129391
H                58.5528907167       19.6351274982        0.4868820133
H                56.2881359039       18.0341104139        0.3999212575
H                56.4022664451       20.2134033563        1.7073153506
H                56.2287317098       21.1091506487        0.2011318044
H                54.4968283838       17.9851437206        1.5328435726
H                54.0223704428       21.9883380952        0.1345037321
H                52.0976265403       17.7309227774        1.6221718861
H                51.6163242241       21.7470139603        0.3212093358
H                50.5875572973       19.6186892218        1.0405719003
H                52.3008718136       12.1693089762       -0.7027810712
H                61.2253214434       23.8181662380       17.5821221185
H                51.7708074970       12.5118895493       12.1648801136
H                48.4439220891       11.7530457950       11.6558681306
H                46.4317602899       13.8443908166       13.2088566834
H                47.3314684639       15.5112228052        8.7749189316
H                45.1601953203       19.8581157684       10.5177004907
H                44.1284511611       19.7077532654        5.5707617234
H                62.7826646693       24.2493592883        7.0562232824
H                59.7994854682       22.5361219101        0.5266561483
H                58.4044139845       18.1336590451        0.1791000405
H                56.2917405899       19.8744036515       -2.0240074849
