 395 
 
N                36.1789338331       23.5215151155       86.4662784627
C                34.8839164119       23.6879254293       85.8394295222
C                35.0655620996       24.7626583771       84.7632445286
O                35.8598131838       25.6813210663       84.9119303595
C                33.7903452604       24.0683569369       86.8335165538
C                33.2913417696       22.8419488410       87.5921300757
S                32.3860835362       21.7185626735       86.5059129355
C                30.8424246858       22.6523393585       86.2589395683
H                36.4018150323       24.1721598595       87.2050289886
H                34.6292278204       22.7359897677       85.3620658600
H                34.1817143810       24.8045236041       87.5430365106
H                32.9611499340       24.5355396780       86.3042504714
H                34.1237443839       22.2637819628       87.9893419811
H                32.6252693413       23.1236232533       88.4070862326
H                30.0728547271       21.9162857531       86.0477196515
H                30.6006392561       23.1682242733       87.1809050189
H                30.9414681986       23.3644649318       85.4524289307
N                34.3617807733       24.5211002259       83.6611670971
C                34.5459567787       25.1394433468       82.3602892400
C                33.6177854786       26.3433891680       82.1637151397
O                32.9831865107       26.8389192473       83.0857542514
C                34.2499919198       24.0050264758       81.3928245325
C                34.9240124477       24.0867933611       80.0201403212
C                32.7285286171       23.7836758418       81.3498915391
C                36.4239382142       24.3371519656       80.1407805102
H                33.6781116355       23.7821253581       83.6907261619
H                35.5781232171       25.5035857036       82.3231561042
H                34.7072780554       23.1250150712       81.8503435654
H                34.7793546054       23.1110268101       79.5467185487
H                34.4646538149       24.8107944515       79.3436276500
H                32.3129226662       24.1429286176       80.4124147463
H                32.5329796635       22.7172318651       81.4512184164
H                32.2224531678       24.2980761140       82.1564702986
H                36.8973437664       24.1754491086       79.1689135826
H                36.6424656035       25.3538180084       80.4450838601
H                36.8613291868       23.6426828388       80.8480504857
N                33.5658086778       26.8392062998       80.9194053309
C                32.4310899771       27.6309896390       80.4955036111
C                31.6278442882       26.8314596090       79.4690442150
O                32.0115525239       25.7601037077       79.0392591448
H                33.9865949123       26.2958502263       80.1802262113
H                31.8245034309       27.8577632894       81.3736908416
H                32.7712735833       28.5704645743       80.0420903587
N                27.4937849940       30.7499793579       75.9895084106
C                26.9453613796       31.9859304344       76.5581385038
C                26.6270892897       32.9367888793       75.3833652033
O                27.2831332385       33.9365751252       75.1032196988
C                27.8140216977       32.6060053463       77.6899450390
O                28.9200506927       33.3759437356       77.2920178155
H                26.8562810434       29.9714725774       75.9345797054
H                25.9962242232       31.7216228018       77.0327423107
H                27.1732244951       33.2686157063       78.2748362531
H                28.1442455721       31.7766213929       78.3278183092
H                29.4449651352       32.7993627441       76.7128879070
N                24.1539015744       38.2903490821       76.0650204824
C                22.9584566534       38.8332599059       76.6831485593
C                22.0213984770       39.4915283691       75.7105213622
O                22.3907372036       40.3357078223       74.8978767038
C                23.5261771593       39.8434757229       77.6796662886
C                24.7089526345       39.0613793117       78.2495081136
C                25.2666900199       38.3469451867       77.0127006668
H                22.4163061363       38.0374447030       77.2174628063
H                23.8785313093       40.7227085088       77.1434351941
H                22.8009814755       40.1265666806       78.4412207780
H                25.4466017718       39.7069469635       78.7163529892
H                24.3475242283       38.3433640182       78.9845746179
H                26.0766466839       38.9319859900       76.5798115493
H                25.6130689850       37.3392334646       77.2602074658
N                20.5621008893       32.4217195004       80.9630004916
C                21.4897869137       31.7883847636       81.8848011854
C                22.4190329000       32.8644999394       82.4585987502
O                22.8102445823       33.8063779515       81.8006995760
C                22.2763795650       30.7047197087       81.1457258325
C                23.2014510625       29.9530670305       82.0739805778
C                23.7276269431       28.6355825516       81.4893735924
N                24.4783625075       28.7967115986       80.2663819009
C                25.7324218862       29.2546754991       80.1669792343
N                26.3396435015       29.8542935918       81.1790695232
N                26.3336333313       29.2169643708       78.9666809409
H                20.8096150499       32.4240383623       79.9817181782
H                20.9074757387       31.3457034039       82.6952605589
H                21.5592042489       30.0087003006       80.7058121750
H                22.8563660110       31.1738840367       80.3453601864
H                24.0183116844       30.6118551449       82.3705793010
H                22.6515043295       29.6882890018       82.9862368610
H                24.3480359570       28.1296447206       82.2375657025
H                22.8861087739       27.9762037655       81.2795330966
H                24.0981751274       28.3127348859       79.4675867392
H                25.9558889232       29.8508337466       82.1069405626
H                27.3149617416       30.1048982957       81.1377990427
H                25.9277595756       28.6663060055       78.2284661361
H                27.3140332842       29.4550134721       78.8766767910
N                22.7764316985       32.6850502858       83.7350106851
C                23.7677940872       33.5530515079       84.3468332370
C                25.0087289186       33.4687311362       83.4627055537
O                25.4620643926       32.3730499051       83.1095563989
C                24.0504301816       33.0686492204       85.7591764842
C                25.1740866572       33.7527046581       86.4911505039
C                25.2145604723       35.1311096582       86.6903436349
C                26.1363347408       32.9789287276       87.1324581326
C                26.2145813011       35.7284368618       87.4384325027
C                27.1010276490       33.5561713575       87.9423558574
C                27.1639562612       34.9409663314       88.0885130298
O                28.1765654048       35.5332875944       88.7961880625
H                22.3778157856       31.9369227210       84.2940348430
H                23.3883896871       34.5735074222       84.3462531212
H                23.1374113474       33.2145490350       86.3473446175
H                24.2506148406       31.9957097356       85.7214446726
H                24.4204185081       35.7518665214       86.3112393094
H                26.1083147863       31.9043577856       87.0479328620
H                26.2360644403       36.7947015246       87.5720418417
H                27.7918502584       32.9151214258       88.4719866462
H                28.5797141672       34.8859498423       89.3859394472
N                25.5971859230       34.6065862990       83.1079010188
C                26.7188962462       34.5415568047       82.1799591405
C                27.8038139573       33.5701218732       82.6543874230
O                28.3813708718       32.8425540853       81.8546288524
C                27.2110358599       35.9949190802       82.0594037015
C                26.4843082913       36.7477275748       83.1761952976
C                25.1767739829       35.9825809584       83.3174934403
H                26.3780323803       34.1528859445       81.2159267628
H                28.2949495785       36.0584308457       82.1510451233
H                26.9344274906       36.3947112834       81.0861543137
H                27.0445727150       36.6903802252       84.1085831435
H                26.3250199646       37.7923538160       82.9259451010
H                24.7293352934       36.1269264358       84.2925074469
H                24.4591954422       36.2584968132       82.5360012419
N                28.1210541316       33.6245191491       83.9744951139
C                29.2091448215       32.8516976140       84.5363414221
C                28.8874940843       31.3714935211       84.8389487638
O                29.7238691787       30.6457249608       85.3524733224
C                29.7103001900       33.4486023138       85.8476848100
C                30.7285085165       34.5808017025       85.7452285511
C                31.3638394407       34.7426150463       87.1381965456
N                32.3122208305       35.8354628922       87.2102202115
C                32.1585365464       37.0058409126       87.8165040513
N                31.0179390851       37.3457637438       88.4224205436
N                33.1772867704       37.8613301782       87.8281210421
H                27.5504990732       34.1663043531       84.6002045405
H                30.0102199780       32.8251730182       83.7850209029
H                28.8442575850       33.7758161022       86.4218593265
H                30.1836009843       32.6258409747       86.3900457448
H                31.4959524505       34.3268673310       85.0170564162
H                30.2494661776       35.5091529842       85.4363315299
H                30.5805925428       34.8900562615       87.8782114351
H                31.8936988685       33.8204935248       87.3859888259
H                33.1804117467       35.6709376639       86.7235420213
H                30.1814956079       36.7946984565       88.3478453305
H                30.9468617044       38.2307869682       88.8874219106
H                34.0717655499       37.6097071527       87.4288147681
H                33.1155191094       38.7533380849       88.2787309655
N                27.6484862240       30.9430406659       84.5851236910
C                27.2601079926       29.6173928679       85.0062989855
C                28.0172711976       28.5520704250       84.2098231758
O                28.1589381956       28.6520504747       82.9882823189
C                25.7295186767       29.5201118233       84.9092763829
C                25.2010661230       28.0917068336       84.8845527277
C                25.4695218212       27.3815067911       86.2246007564
O                25.7308209920       26.1635674434       86.1764004622
O                25.4221640534       28.0659104734       87.2793774910
H                26.9888258907       31.4980570421       84.0431187625
H                27.5596561646       29.5011936583       86.0582345189
H                25.3096161842       30.0058094621       85.7945269877
H                25.3894194608       30.0699271948       84.0321719697
H                24.1178655153       28.1181831069       84.7453478846
H                25.6496882925       27.5025348264       84.0834909955
N                28.4743599786       27.5116715390       84.9017541337
C                29.3830697381       26.5330112462       84.3509784322
C                28.9220954704       25.0702365803       84.3742270645
O                29.5924421265       24.2116577625       83.8113888016
C                30.7842890611       26.5554277631       85.0439350513
O                30.8072046730       25.7268693681       86.1866579349
C                31.2448974412       27.9732804917       85.3319014543
H                28.3478711476       27.4987716580       85.9048425905
H                29.5256001879       26.8169199244       83.3033165516
H                31.4772451791       26.0928783338       84.3338975340
H                30.8371700006       26.2912224652       86.9689927990
H                32.2984780068       27.9560829695       85.6022692263
H                31.1348806008       28.5923060593       84.4517447589
H                30.6725244342       28.4258771782       86.1377910955
N                27.8139857396       24.7713282706       85.0464798596
C                27.3046926793       23.4247223015       85.1262475437
C                26.0657990282       23.2339929652       84.2510650121
O                25.9324406106       22.2420113026       83.5517241445
C                26.9695123310       23.0369643203       86.5745504677
C                26.3902436926       21.6465621366       86.6733269344
C                27.1094011969       20.5394296561       86.2368865911
C                25.1251581966       21.4394173549       87.2068351586
C                26.5693416412       19.2667558635       86.3058475441
C                24.5966671946       20.1639544531       87.3126474834
C                25.3093093596       19.0738083220       86.8501645103
H                27.2599577333       25.4841959744       85.5121225871
H                28.0878260574       22.7631516408       84.7445185434
H                27.8888946821       23.0977558596       87.1641285792
H                26.2663383968       23.7670885518       86.9796588532
H                28.1051616851       20.6724287217       85.8434043159
H                24.5562681672       22.2846126233       87.5739293752
H                27.1251311953       18.4196964738       85.9317135008
H                23.6251455964       20.0246100371       87.7653946607
H                24.8953862506       18.0810297227       86.9312661693
N                25.1622443904       24.2088453942       84.3235091510
C                23.9205926523       24.1077549658       83.5889496016
C                24.1077932682       24.3832332121       82.0944275438
O                24.8847501302       25.2377512472       81.6586263322
C                22.9245448191       25.1423364588       84.1204434353
C                22.4499264200       24.8598867445       85.5507757914
C                22.0801902716       26.1665176680       86.2412013765
C                21.2647957686       23.9027258061       85.5399963048
H                25.3359311664       25.0102772050       84.9182968775
H                23.5506128476       23.0857959090       83.7236078632
H                23.4301667957       26.1071247511       84.0779332340
H                22.0677989728       25.1920244667       83.4452129348
H                23.2749950326       24.3997725657       86.1053433504
H                21.7059640566       25.9803147853       87.2423857590
H                22.9480646811       26.8154024797       86.3273041199
H                21.3151865670       26.6931088208       85.6737753319
H                20.9455671923       23.6779984798       86.5559204359
H                20.4238573859       24.3447674229       85.0053418840
H                21.5248073846       22.9638930033       85.0599271688
N                23.3102130396       23.6966237809       81.2858128137
C                23.2083522949       24.0806009459       79.8703001722
C                22.4118617344       25.3942718081       79.7486918968
O                21.8680963132       25.9233547523       80.6791912599
C                22.4459653502       22.9228793587       79.1999620168
C                21.5490142133       22.4298385378       80.3422821189
C                22.3885990705       22.6298543818       81.6262222542
H                24.2217320836       24.2179246055       79.4897044966
H                21.8760085678       23.2491121035       78.3453841194
H                23.1458876549       22.1391595873       78.9082791099
H                20.6565399852       23.0512555386       80.4036179507
H                21.2571043244       21.3913481674       80.2187102019
H                21.7454409092       22.9069813790       82.4579154208
H                22.9530885261       21.7294288662       81.8775221262
N                17.4882067347       16.7413382178       84.3368088028
C                17.9442364123       17.4887222155       85.4930275474
C                16.8307234938       17.7512213461       86.5247038399
O                16.3689599917       18.8611749499       86.6933144985
C                18.5353158766       18.8398626530       85.0597970676
C                19.6608372199       18.7458165106       84.0382571146
C                21.0382306457       18.3668471446       84.6027620274
N                21.0705952734       17.1544506555       85.4033048574
C                21.2760346729       15.9002222472       85.0192368691
N                21.3639591601       15.5734747005       83.7207081094
N                21.4843194734       14.9847119764       85.9535013914
H                16.9889981251       17.2507308000       83.6223232854
H                18.6873763620       16.8584917561       85.9910797919
H                17.7173984974       19.4276672340       84.6438746073
H                18.8802058893       19.3498367686       85.9613280104
H                19.3891558713       18.0358060457       83.2638997633
H                19.7808593733       19.7217294615       83.5720717930
H                21.7369640923       18.2527904882       83.7722487773
H                21.3939773576       19.1689449579       85.2474171563
H                21.0307857944       17.2778783540       86.4011023642
H                20.8981964074       16.1447825333       83.0240838320
H                21.4563094553       14.5979666272       83.4999284575
H                21.4288956774       15.2594228779       86.9361873252
H                21.5224688449       14.0053482599       85.7212654357
N                18.7737724573       17.9260032592       90.9087324239
C                19.7385744910       18.9960762911       91.0795806525
C                18.9657151282       20.2894759114       90.7630371439
O                18.2967238216       20.4134252666       89.7421345552
C                20.9659829641       18.8444849485       90.1582908931
C                20.5878655609       18.5967631702       88.6915978802
C                20.2927969435       17.0950486906       88.3973241582
O                21.2918717558       16.3398925798       88.2984912808
O                19.1124142357       16.7440041952       88.2094452123
H                18.1901331190       18.0140590705       90.0848199881
H                20.0709796715       18.9717113799       92.1194014096
H                21.5623104797       19.7533649823       90.2415762058
H                21.5701858086       18.0042596814       90.5099297259
H                19.7140071398       19.1900354354       88.4167582516
H                21.4334931312       18.8799981804       88.0626988368
N                17.3030555199       35.5422545639       85.3812320209
C                18.5037234913       34.7827083258       85.1373114598
C                18.3602442402       33.4562234193       85.8375064971
O                17.5851618006       33.3667494656       86.7898949549
C                19.7154052074       35.5902210861       85.6356932764
O                19.6485003456       36.8923502970       85.0982712087
C                21.0247002259       34.9068720599       85.2911438843
H                17.0667822244       35.7585214623       86.3413586646
H                18.5971346624       34.6335863724       84.0571263623
H                19.6522906932       35.7284369534       86.7216663035
H                19.7281948380       36.8401036033       84.1371963367
H                21.8330694236       35.5137168979       85.6958215201
H                21.0728605301       33.9300658491       85.7517293553
H                21.1155277592       34.8132428299       84.2115538604
N                20.8255424076       30.2792537120       87.5718866915
C                22.1704211068       29.9851435910       88.0412475833
C                22.1470582843       28.7984486973       88.9753679230
O                21.2011056643       28.6411694352       89.7416892724
C                22.7307323671       31.1495174049       88.8624428201
H                20.0897026201       30.2100010797       88.2661679179
H                22.8005799513       29.7935140060       87.1656811584
H                23.7685591190       30.9748772565       89.1354799248
H                22.6858919189       32.0831637848       88.3013574222
H                22.1526110309       31.2870551557       89.7736245810
N                23.2072429491       27.9957761016       88.9612419554
C                23.3344555561       26.9204028286       89.9269872865
C                23.8781274866       27.3467049273       91.3214701712
O                23.7812852000       26.6633154132       92.2434213140
C                24.2630858248       25.8139491090       89.4134166950
O                25.6121147674       26.2082739313       89.4204726843
H                23.9983796883       28.1496386096       88.3360376911
H                22.3437086525       26.4893902861       90.1088075349
H                24.1797380655       24.9645974762       90.0990459921
H                23.9553663977       25.5011734507       88.4110116007
H                25.7473071294       26.8017448232       88.6461798300
N                29.6735278593       14.6882755404       88.1585404325
C                29.2783020889       15.5048016070       87.0240422653
C                29.2746078070       14.5448555417       85.8268641167
O                30.2905898342       14.3440402592       85.1732735800
C                30.2841380448       16.6342409329       86.7787901932
C                30.5207261402       17.5707699867       87.9376330808
C                29.6708883289       18.6462156290       88.1848674113
C                31.6626310548       17.4389088622       88.7198238496
C                29.9767894284       19.5818920344       89.1553980498
C                31.9713462343       18.3804416721       89.6895617707
C                31.1363832422       19.4629435972       89.9035534822
H                30.5618664223       14.2029486901       88.0626220419
H                28.2810678546       15.8953936778       87.2447764107
H                31.2243663072       16.1642184022       86.4859776303
H                29.9010880125       17.2053361830       85.9314505666
H                28.7688378365       18.7583457815       87.6037574728
H                32.3208897120       16.6027970417       88.5445235447
H                29.3017628879       20.4079016068       89.3266571166
H                32.8905914645       18.2767659661       90.2448331402
H                31.3765391406       20.2106351673       90.6436819243
N                28.1481899380       13.8712691872       85.5665013743
C                28.2437900106       12.6052630564       84.8616895957
C                28.2350937939       12.7093540625       83.3478365187
O                28.6230703845       11.7822947856       82.6434255049
C                27.0352285711       11.8214697103       85.3707221010
C                26.0008424153       12.9174411867       85.6040180305
C                26.8390805491       14.0592001164       86.1750720190
H                29.1704156163       12.0913764073       85.1317406114
H                26.7130050708       11.0530775019       84.6695045094
H                27.2997625519       11.3418345898       86.3140613235
H                25.5383666466       13.2126215020       84.6617159745
H                25.2202548636       12.6032572457       86.2939338415
H                26.4363799322       15.0376829406       85.9034740602
H                26.8882462868       13.9777064242       87.2647321200
N                27.7969726169       13.8658074340       82.8475371741
C                27.5654033897       14.1214575183       81.4426031958
C                28.6060034240       15.0942288488       80.8263546795
O                28.3508724210       15.7614782297       79.8315645548
C                26.1442603533       14.6705321792       81.2377318662
C                25.8334644164       15.8803466794       82.1147178089
O                26.3102214189       16.0497855585       83.2391775558
N                24.9784424897       16.7533691694       81.5698700877
H                27.4419703410       14.5971347050       83.4635915071
H                27.6702557154       13.1686659565       80.9115742390
H                26.0286300217       14.9389390683       80.1886120605
H                25.4220985564       13.8930550713       81.4886653216
H                24.6629786351       17.5375196053       82.1244034168
H                24.5576482148       16.5961832411       80.6753565110
N                29.7840440539       15.1136326780       81.4639309522
C                30.9010333600       15.9812756578       81.1450222026
C                32.1383436584       15.1179182349       80.8145667370
O                32.2728158372       13.9814221878       81.2399225643
C                31.2251553016       16.8748531088       82.3599833700
C                30.0304508196       17.7089797722       82.8317033290
C                29.8599519223       19.0740524506       82.1485296743
C                30.5664276899       20.2151700372       82.8957679516
N                29.8123067453       21.4848988088       82.6928407964
H                29.9312044611       14.5061068539       82.2595455797
H                30.6162304204       16.5731892529       80.2704617661
H                31.5198331566       16.2020013713       83.1683564844
H                32.0741617493       17.5090678129       82.1067611654
H                29.1241853103       17.1186754539       82.6719931321
H                30.1159451951       17.8527118227       83.9067380465
H                30.2091075248       19.0037458749       81.1192129845
H                28.7884368941       19.2822755553       82.1264483931
H                30.6071700986       19.9999080264       83.9628881676
H                31.5866471187       20.3492413725       82.5334136800
H                30.1599226233       22.2920809097       83.2472208320
H                29.8321864346       21.7644300101       81.7020236866
H                28.8195045920       21.3437717914       82.9447877275
H                36.2320637390       22.7012973806       86.8329119042
H                30.7567493723       27.1862871140       79.1294987995
H                27.7740053651       30.9047547803       75.1483656688
H                25.8415331732       32.7551759988       74.7918262364
H                24.1928532572       37.4036010116       76.2138849369
H                21.0517129411       39.2471973886       75.7070094475
H                19.7646834148       32.0067432330       81.0068190807
H                22.3288884305       25.8484011908       78.8616282381
H                18.1954149991       16.3743965989       83.9182274857
H                16.4711362827       16.9976101782       87.0749467364
H                19.2062379067       17.1397156295       90.8399908896
H                18.9999944449       21.0607024349       91.3986742872
H                17.3633572298       36.3400912092       84.9691393236
H                18.8898968093       32.6669628404       85.5268042368
H                20.7947346692       31.1218797475       87.2571927965
H                24.3252031832       28.2341094538       91.4338824831
H                29.7465673656       15.2065011425       88.8907340243
H                32.8642861535       15.4861462422       80.2336918550
