611
Properties=species:S:1:pos:R:3 pbc="F F F"
N      30.28100000      14.80500000       0.60600000 
C      30.40500000      15.74900000       1.68400000 
C      29.29500000      15.53800000       2.68300000 
O      29.51600000      15.49000000       3.90800000 
C      30.36800000      17.17600000       1.13100000 
C      31.38400000      18.03200000       1.84500000 
S      31.07800000      19.85300000       1.61000000 
C      30.60700000      19.93300000      -0.17600000 
H      30.27800000      15.14900000      -0.33300000 
H      31.32700000      15.57500000       2.21200000 
H      30.58800000      17.14400000       0.08000000 
H      29.37600000      17.58400000       1.24100000 
H      31.32200000      17.89300000       2.90900000 
H      32.38600000      17.80400000       1.53600000 
H      30.41700000      20.96900000      -0.39300000 
H      31.41800000      19.57100000      -0.78200000 
H      29.71700000      19.35500000      -0.34100000 
N      28.06800000      15.40600000       2.19200000 
C      26.95900000      15.21800000       3.09000000 
C      27.13100000      13.91100000       3.82100000 
O      26.90200000      13.82700000       5.04400000 
C      25.63800000      15.26100000       2.33500000 
C      24.44000000      15.19400000       3.27700000 
C      24.36200000      16.43400000       4.15500000 
C      23.15400000      15.03000000       2.48700000 
H      27.89800000      15.50500000       1.21100000 
H      26.98100000      15.98100000       3.84500000 
H      25.60000000      16.18400000       1.77300000 
H      25.60900000      14.44300000       1.62800000 
H      24.55300000      14.32600000       3.91800000 
H      23.45100000      16.42700000       4.73600000 
H      25.19200000      16.50300000       4.84200000 
H      24.35800000      17.32300000       3.53600000 
H      22.30400000      14.95100000       3.15400000 
H      22.99800000      15.88900000       1.84600000 
H      23.18700000      14.14600000       1.86500000 
N      27.54300000      12.88000000       3.09900000 
C      27.80000000      11.59500000       3.69800000 
C      28.70200000      11.73000000       4.89300000 
O      28.46600000      11.07400000       5.92200000 
C      28.42400000      10.63500000       2.68500000 
O      27.46100000      10.30900000       1.67300000 
C      28.79400000       9.33000000       3.33000000 
H      27.72300000      13.00500000       2.12500000 
H      26.88700000      11.15800000       4.06400000 
H      29.27700000      11.11200000       2.23900000 
H      27.36800000      11.01800000       1.03500000 
H      29.09900000       8.63500000       2.56100000 
H      29.60400000       9.44800000       4.03400000 
H      27.93900000       8.92300000       3.85100000 
N      29.75900000      12.53300000       4.81500000 
C      30.66000000      12.61800000       5.92900000 
C      29.97400000      13.22600000       7.13200000 
O      30.22100000      12.83100000       8.29000000 
C      31.86700000      13.47100000       5.61900000 
C      32.65600000      13.03200000       4.39800000 
C      34.13100000      13.04500000       4.70100000 
N      34.41400000      11.80800000       5.42800000 
C      35.53900000      11.52000000       6.06000000 
N      36.43600000      12.46500000       6.29600000 
N      35.74900000      10.26700000       6.45000000 
H      29.95500000      13.02300000       3.96500000 
H      30.97000000      11.62700000       6.22000000 
H      31.54200000      14.49200000       5.48800000 
H      32.50000000      13.44000000       6.49300000 
H      32.36400000      12.03900000       4.08300000 
H      32.44600000      13.68300000       3.56600000 
H      34.72700000      13.07400000       3.81100000 
H      34.37700000      13.89600000       5.31100000 
H      33.75400000      11.07300000       5.31900000 
H      36.19100000      13.44200000       6.25800000 
H      37.30000000      12.22700000       6.72400000 
H      35.13700000       9.53600000       6.17300000 
H      36.55200000      10.02800000       6.98200000 
N      29.13800000      14.23300000       6.91400000 
C      28.46400000      14.83700000       8.04400000 
C      27.62700000      13.77900000       8.72200000 
O      27.59700000      13.70200000       9.96800000 
C      27.64800000      16.05200000       7.61200000 
C      28.57600000      17.17800000       7.13500000 
C      27.83600000      18.24100000       6.35900000 
N      26.74200000      18.78000000       7.15500000 
C      25.75800000      19.48900000       6.63200000 
N      25.65500000      19.62000000       5.31600000 
N      24.86000000      20.06700000       7.42100000 
H      28.90700000      14.51000000       5.98400000 
H      29.19600000      15.14000000       8.77100000 
H      26.98000000      15.76100000       6.81500000 
H      27.05500000      16.38800000       8.44600000 
H      29.06600000      17.61400000       7.99300000 
H      29.33900000      16.77400000       6.48700000 
H      28.50700000      19.03400000       6.05700000 
H      27.42500000      17.79100000       5.46900000 
H      26.78000000      18.68700000       8.16000000 
H      26.37900000      19.34400000       4.68100000 
H      24.91400000      20.16200000       4.94100000 
H      24.97400000      20.07200000       8.42400000 
H      24.09200000      20.55700000       7.02800000 
N      26.95100000      12.93500000       7.95800000 
C      26.17300000      11.87000000       8.56000000 
C      27.06800000      10.94600000       9.35300000 
O      26.66100000      10.46600000      10.43000000 
C      25.36700000      11.13900000       7.48600000 
C      24.68100000       9.89500000       8.03700000 
C      24.33400000      12.09400000       6.92900000 
H      26.99200000      13.01700000       6.96200000 
H      25.49300000      12.28800000       9.28100000 
H      26.05700000      10.84800000       6.70600000 
H      24.09300000       9.44000000       7.25300000 
H      25.38900000       9.16400000       8.39800000 
H      24.01900000      10.16300000       8.84900000 
H      23.73800000      11.60100000       6.17500000 
H      23.67100000      12.41900000       7.72100000 
H      24.78900000      12.96800000       6.48500000 
N      28.27700000      10.67600000       8.86800000 
C      29.18600000       9.81900000       9.59300000 
C      29.58100000      10.42600000      10.92300000 
O      29.66000000       9.73200000      11.95800000 
C      30.43600000       9.58400000       8.77100000 
C      31.46300000       8.71900000       9.49300000 
C      30.86700000       7.41300000      10.01300000 
C      32.62400000       8.43400000       8.55500000 
H      28.54800000      11.03500000       7.97700000 
H      28.69300000       8.89200000       9.82100000 
H      30.13800000       9.09200000       7.85400000 
H      30.87000000      10.53700000       8.51400000 
H      31.84400000       9.27700000      10.33900000 
H      31.65300000       6.79000000      10.42000000 
H      30.13600000       7.58500000      10.78500000 
H      30.39500000       6.87500000       9.19900000 
H      33.39300000       7.86600000       9.06100000 
H      32.28200000       7.86400000       7.69900000 
H      33.06300000       9.35800000       8.19400000 
N      29.88700000      11.71200000      10.93700000 
C      30.27000000      12.36700000      12.16300000 
C      29.10900000      12.32300000      13.12800000 
O      29.31000000      12.15400000      14.34800000 
C      30.67200000      13.80000000      11.84100000 
C      31.24200000      14.54900000      13.02100000 
C      32.51800000      13.93900000      13.51400000 
O      33.18500000      13.18000000      12.78000000 
N      32.92100000      14.24900000      14.73600000 
H      29.85300000      12.23500000      10.08400000 
H      31.08100000      11.83700000      12.62800000 
H      31.41300000      13.75200000      11.05900000 
H      29.81400000      14.32900000      11.45900000 
H      31.45900000      15.56800000      12.72900000 
H      30.53900000      14.60100000      13.83800000 
H      32.47900000      14.96200000      15.28000000 
H      33.78500000      13.88000000      15.06100000 
N      27.88700000      12.48900000      12.63000000 
C      26.73400000      12.46800000      13.50300000 
C      26.63900000      11.11200000      14.14500000 
O      26.44700000      11.01600000      15.37100000 
C      25.45300000      12.77500000      12.73500000 
C      25.27900000      14.24600000      12.39000000 
C      24.13700000      14.38400000      11.40100000 
C      24.98000000      15.06400000      13.63100000 
H      27.76300000      12.69100000      11.65900000 
H      26.87500000      13.16500000      14.30900000 
H      25.44900000      12.17500000      11.83900000 
H      24.61200000      12.46300000      13.34100000 
H      26.18500000      14.61200000      11.93000000 
H      23.95200000      15.42300000      11.16700000 
H      24.35300000      13.85900000      10.48100000 
H      23.22900000      13.97100000      11.82300000 
H      24.76200000      16.08600000      13.36500000 
H      24.11500000      14.65900000      14.14300000 
H      25.81100000      15.06500000      14.32100000 
N      26.76800000      10.05000000      13.36000000 
C      26.69900000       8.71500000      13.89800000 
C      27.77600000       8.52900000      14.94200000 
O      27.54900000       7.87400000      15.98100000 
C      26.84400000       7.67800000      12.79200000 
C      25.62800000       7.59200000      11.87300000 
C      25.88200000       6.75100000      10.64200000 
O      27.06800000       6.63300000      10.22400000 
O      24.88500000       6.23100000      10.03500000 
H      26.90100000      10.17700000      12.37600000 
H      25.76700000       8.58000000      14.42100000 
H      27.71400000       7.92400000      12.20500000 
H      27.02000000       6.71400000      13.25200000 
H      24.77000000       7.19600000      12.39200000 
H      25.36700000       8.57800000      11.51300000 
N      28.96700000       9.06400000      14.71800000 
C      30.03200000       8.87800000      15.67200000 
C      29.76800000       9.63900000      16.95900000 
O      29.89300000       9.07800000      18.06900000 
C      31.34300000       9.30000000      15.03300000 
O      31.57300000       8.45700000      13.90200000 
C      32.50300000       9.12800000      15.97500000 
H      29.13800000       9.55400000      13.86300000 
H      30.09700000       7.84000000      15.94100000 
H      31.26100000      10.32600000      14.71000000 
H      31.07700000       8.74400000      13.13600000 
H      33.41800000       9.37200000      15.46200000 
H      32.40500000       9.77500000      16.83500000 
H      32.54900000       8.10500000      16.31800000 
N      29.40300000      10.90600000      16.88700000 
C      29.10800000      11.62900000      18.09800000 
C      27.93700000      11.01400000      18.80200000 
O      27.94000000      10.90400000      20.04400000 
C      28.84900000      13.10900000      17.81300000 
C      28.38800000      13.81200000      19.07500000 
C      30.10900000      13.77600000      17.28700000 
H      29.27400000      11.34900000      15.99500000 
H      29.94000000      11.54200000      18.77600000 
H      28.07300000      13.16700000      17.06100000 
H      28.28400000      14.87000000      18.88000000 
H      27.43900000      13.44200000      19.43000000 
H      29.11800000      13.68100000      19.86100000 
H      29.91700000      14.81900000      17.08000000 
H      30.89200000      13.71500000      18.03000000 
H      30.45800000      13.30800000      16.38000000 
N      26.88500000      10.64500000      18.08100000 
C      25.69200000      10.20500000      18.77200000 
C      25.94900000       8.89400000      19.47000000 
O      25.43700000       8.65700000      20.57800000 
C      24.53000000      10.11700000      17.80200000 
C      23.22100000       9.64000000      18.42600000 
C      22.80800000      10.46800000      19.63300000 
C      22.14500000       9.70400000      17.34800000 
H      26.86300000      10.75600000      17.08600000 
H      25.46400000      10.90800000      19.55300000 
H      24.38300000      11.10500000      17.38700000 
H      24.80200000       9.46300000      16.98600000 
H      23.33600000       8.61100000      18.73900000 
H      21.82900000      10.15900000      19.97600000 
H      23.50500000      10.35500000      20.45100000 
H      22.75600000      11.51500000      19.36300000 
H      21.18500000       9.40300000      17.74400000 
H      22.05400000      10.71800000      16.97800000 
H      22.39100000       9.06100000      16.51700000 
N      26.74500000       8.01200000      18.87400000 
C      27.05900000       6.76500000      19.52900000 
C      27.75100000       7.01600000      20.84600000 
O      27.54300000       6.29500000      21.84000000 
C      27.94800000       5.92800000      18.62200000 
C      27.97100000       4.48500000      19.04800000 
C      29.01100000       3.64200000      18.36000000 
O      29.78600000       4.16000000      17.50900000 
O      29.02200000       2.41100000      18.69500000 
H      27.11500000       8.18900000      17.96400000 
H      26.15200000       6.23200000      19.76000000 
H      27.57600000       6.01300000      17.61500000 
H      28.94500000       6.34000000      18.62000000 
H      28.13500000       4.39300000      20.11200000 
H      27.01700000       4.02200000      18.84800000 
N      28.62500000       8.01300000      20.87500000 
C      29.30500000       8.36400000      22.09100000 
C      28.34900000       8.87700000      23.13200000 
O      28.40500000       8.48200000      24.31400000 
H      28.77700000       8.56600000      20.06100000 
H      29.80800000       7.51200000      22.51100000 
H      30.02800000       9.13100000      21.86800000 
N      25.15500000       8.30800000      23.44900000 
C      24.37200000       7.20100000      23.93500000 
C      25.15300000       6.42200000      24.97000000 
O      24.62200000       6.03800000      26.02800000 
C      23.95100000       6.33800000      22.74500000 
C      23.53300000       4.95100000      23.18000000 
C      22.79600000       7.02300000      22.02900000 
H      25.31900000       8.39600000      22.46400000 
H      23.49500000       7.55800000      24.45200000 
H      24.80200000       6.26100000      22.08400000 
H      23.21800000       4.38600000      22.32100000 
H      24.33500000       4.41000000      23.66000000 
H      22.70400000       5.01200000      23.87300000 
H      22.52000000       6.46300000      21.14500000 
H      21.93700000       7.06100000      22.69000000 
H      23.05300000       8.02900000      21.73200000 
N      26.42300000       6.13400000      24.72000000 
C      27.15600000       5.35000000      25.66500000 
C      27.22100000       6.01700000      27.00900000 
O      27.08400000       5.33300000      28.03600000 
C      28.55100000       5.06600000      25.15600000 
O      28.43000000       3.83100000      24.43700000 
H      26.84700000       6.39800000      23.85400000 
H      26.65900000       4.41400000      25.83800000 
H      28.89200000       5.85800000      24.51400000 
H      29.23900000       4.94200000      25.97500000 
H      29.17600000       3.64300000      23.87800000 
O      27.54300000      19.41500000       3.22200000 
H      28.48200000      19.46200000       3.06200000 
H      27.06000000      19.60100000       2.42200000 
O      33.85100000      11.01800000      11.53000000 
H      34.79500000      11.12200000      11.48300000 
H      33.45700000      11.78300000      11.95700000 
O      22.25100000       5.92800000      10.92300000 
H      23.15500000       6.09500000      10.62900000 
H      21.65100000       6.63700000      10.70400000 
O      31.64700000       7.19300000      18.82800000 
H      32.51200000       7.59000000      18.83500000 
H      30.98700000       7.82300000      18.52600000 
O      29.53800000       5.52400000      15.24700000 
H      29.79100000       4.97000000      15.99400000 
H      28.76700000       6.03500000      15.47800000 
O      28.26800000      16.30500000      10.92300000 
H      27.67100000      17.00600000      10.62900000 
H      27.95400000      15.43200000      10.70400000 
N      21.57100000       6.55100000       2.19200000 
C      21.96300000       7.60600000       3.09000000 
C      20.74600000       8.11000000       3.82100000 
O      20.78700000       8.35000000       5.04400000 
C      22.66100000       8.72700000       2.33500000 
C      23.20200000       9.79900000       3.27700000 
C      24.31400000       9.24700000       4.15500000 
C      23.70300000      10.99400000       2.48700000 
H      21.74200000       6.64900000       1.21100000 
H      22.61300000       7.20500000       3.84500000 
H      23.47900000       8.29900000       1.77300000 
H      21.96700000       9.16200000       1.62800000 
H      22.39400000      10.13500000       3.91800000 
H      24.76400000      10.03900000       4.73600000 
H      23.96000000       8.49300000       4.84200000 
H      25.08700000       8.80500000       3.53600000 
H      24.05900000      11.77000000       3.15400000 
H      24.52500000      10.70000000       1.84600000 
H      22.92100000      11.40800000       1.86500000 
N      20.02100000       6.21100000       6.91400000 
C      20.88100000       6.49200000       8.04400000 
C      20.38300000       7.74600000       8.72200000 
O      20.33100000       7.81100000       9.96800000 
C      22.34100000       6.59200000       7.61200000 
C      22.85200000       5.22500000       7.13500000 
C      24.14300000       5.33400000       6.35900000 
N      25.15600000       6.01300000       7.15500000 
C      26.26200000       6.51000000       6.63200000 
N      26.42700000       6.53400000       5.31600000 
N      27.21200000       6.99900000       7.42100000 
H      20.37600000       6.27300000       5.98400000 
H      20.77700000       5.70700000       8.77100000 
H      22.42300000       7.31600000       6.81500000 
H      22.92800000       6.93700000       8.44600000 
H      22.98500000       4.58200000       7.99300000 
H      22.12100000       4.76600000       6.48700000 
H      24.49400000       4.35700000       6.05700000 
H      23.95900000       5.91500000       5.46900000 
H      25.05700000       6.02600000       8.16000000 
H      25.82700000       6.04500000       4.68100000 
H      27.26700000       6.90500000       4.94100000 
H      27.15900000       6.89700000       8.42400000 
H      28.02000000       7.41900000       7.02800000 
N      19.99000000       8.75400000       7.95800000 
C      19.45600000       9.96000000       8.56000000 
C      18.20900000       9.64700000       9.35300000 
O      17.99700000      10.23900000      10.43000000 
C      19.22700000      11.02400000       7.48600000 
C      18.49300000      12.24000000       8.03700000 
C      20.57000000      11.44000000       6.92900000 
H      20.04000000       8.67700000       6.96200000 
H      20.15900000      10.34000000       9.28100000 
H      18.63000000      10.57200000       6.70600000 
H      18.39300000      12.97700000       7.25300000 
H      17.50500000      11.99200000       8.39800000 
H      19.05500000      12.67900000       8.84900000 
H      20.44100000      12.20300000       6.17500000 
H      21.18300000      11.85200000       7.72100000 
H      21.09900000      10.61000000       6.48500000 
N      19.13600000       8.16600000      12.63000000 
C      19.69400000       9.17500000      13.50300000 
C      18.56700000       9.93500000      14.14500000 
O      18.58000000      10.15000000      15.37100000 
C      20.60100000      10.13000000      12.73500000 
C      21.96200000       9.54600000      12.39000000 
C      22.65200000      10.46600000      11.40100000 
C      22.81900000       9.39600000      13.63100000 
H      19.37300000       8.17200000      11.65900000 
H      20.22700000       8.70400000      14.30900000 
H      20.08300000      10.43400000      11.83900000 
H      20.75100000      11.01500000      13.34100000 
H      21.82500000       8.57800000      11.93000000 
H      23.64400000      10.10700000      11.16700000 
H      22.09000000      10.54200000      10.48100000 
H      22.74800000      11.45900000      11.82300000 
H      23.81400000       9.07300000      13.36500000 
H      22.90100000      10.34800000      14.14300000 
H      22.40500000       8.67600000      14.32100000 
N      19.60100000      17.41300000       3.09900000 
C      20.58500000      18.27800000       3.69800000 
C      20.01700000      18.99200000       4.89300000 
O      20.70400000      19.11500000       5.92200000 
C      21.10500000      19.29900000       2.68500000 
O      21.86800000      18.62800000       1.67300000 
C      22.05000000      20.27200000       3.33000000 
H      19.40300000      17.50600000       2.12500000 
H      21.42100000      17.70600000       4.06400000 
H      20.26500000      19.79900000       2.23900000 
H      21.30100000      18.19200000       1.03500000 
H      22.49900000      20.88200000       2.56100000 
H      21.54300000      20.91400000       4.03400000 
H      22.83000000      19.73400000       3.85100000 
N      19.85000000      16.87300000       7.95800000 
C      21.16100000      16.73200000       8.56000000 
C      21.51400000      17.96900000       9.35300000 
O      22.13200000      17.85600000      10.43000000 
C      22.19700000      16.39800000       7.48600000 
C      23.61700000      16.42700000       8.03700000 
C      21.88600000      15.02700000       6.92900000 
H      19.75800000      16.86700000       6.96200000 
H      21.13900000      15.93300000       9.28100000 
H      22.10400000      17.14200000       6.70600000 
H      24.30500000      16.14500000       7.25300000 
H      23.89600000      17.40500000       8.39800000 
H      23.71600000      15.72000000       8.84900000 
H      22.61100000      14.75700000       6.17500000 
H      21.93600000      14.29000000       7.72100000 
H      20.90200000      14.98400000       6.48500000 
N      21.14300000      19.15100000       8.86800000 
C      21.43100000      20.36700000       9.59300000 
C      20.70700000      20.40500000      10.92300000 
O      21.26900000      20.82000000      11.95800000 
C      21.00900000      21.56600000       8.77100000 
C      21.24400000      22.88800000       9.49300000 
C      22.67300000      23.02500000      10.01300000 
C      20.91100000      24.03600000       8.55500000 
H      20.69600000      19.20600000       7.97700000 
H      22.48000000      20.40300000       9.82100000 
H      21.58400000      21.55400000       7.85400000 
H      19.96700000      21.46500000       8.51400000 
H      20.57100000      22.93900000      10.33900000 
H      22.82000000      24.01700000      10.42000000 
H      22.89000000      22.30600000      10.78500000 
H      23.37600000      22.88500000       9.19900000 
H      21.01900000      24.98600000       9.06100000 
H      21.57600000      24.02500000       7.69900000 
H      19.89100000      23.95500000       8.19400000 
N      19.76800000      17.90600000      12.63000000 
C      20.36200000      16.91800000      13.50300000 
C      21.58400000      17.51400000      14.14500000 
O      21.76400000      17.39600000      15.37100000 
C      20.73600000      15.65600000      12.73500000 
C      19.55000000      14.76900000      12.39000000 
C      20.00100000      13.71100000      11.40100000 
C      18.99100000      14.10100000      13.63100000 
H      19.65400000      17.69800000      11.65900000 
H      19.68800000      16.69200000      14.30900000 
H      21.25800000      15.95200000      11.83900000 
H      21.42800000      15.08300000      13.34100000 
H      18.78000000      15.37100000      11.93000000 
H      19.19400000      13.03200000      11.16700000 
H      20.34800000      14.16100000      10.48100000 
H      20.81300000      13.13200000      11.82300000 
H      18.21500000      13.40200000      13.36500000 
H      19.77500000      13.55500000      14.14300000 
H      18.57500000      14.82000000      14.32100000 
N      22.44000000      18.15600000      13.36000000 
C      23.63000000      18.76400000      13.89800000 
C      23.25200000      19.79000000      14.94200000 
O      23.93400000      19.92100000      15.98100000 
C      24.45600000      19.40900000      12.79200000 
C      25.13900000      18.39900000      11.87300000 
C      25.73900000      19.03900000      10.64200000 
O      25.24900000      20.12500000      10.22400000 
O      26.68800000      18.43600000      10.03500000 
H      22.26300000      18.20900000      12.37600000 
H      24.21300000      18.02500000      14.42100000 
H      23.80800000      20.03900000      12.20500000 
H      25.20200000      20.04300000      13.25200000 
H      25.91000000      17.85300000      12.39200000 
H      24.41500000      17.67900000      11.51300000 
N      21.86500000      17.96100000      18.08100000 
C      22.84400000      17.14700000      18.77200000 
C      23.85000000      18.02500000      19.47000000 
O      24.31100000      17.70000000      20.57800000 
C      23.50000000      16.18500000      17.80200000 
C      24.56800000      15.29000000      18.42600000 
C      24.05800000      14.51900000      19.63300000 
C      25.05000000      14.32600000      17.34800000 
H      21.78100000      17.88600000      17.08600000 
H      22.34800000      16.59900000      19.55300000 
H      22.71800000      15.56400000      17.38700000 
H      23.93100000      16.74800000      16.98600000 
H      25.40200000      15.90400000      18.73900000 
H      24.81500000      13.82500000      19.97600000 
H      23.80700000      15.17800000      20.45100000 
H      23.17600000      13.95000000      19.36300000 
H      25.79100000      13.64500000      17.74400000 
H      24.21800000      13.74000000      16.97800000 
H      25.48500000      14.86000000      16.51700000 
N      22.47300000      -1.04700000      22.33000000 
C      23.08200000      -0.49700000      21.13900000 
C      22.86000000      -1.34200000      19.91100000 
O      22.72700000      -0.75800000      18.82000000 
C      24.55200000      -0.17800000      21.30800000 
C      24.73100000       1.11000000      22.09700000 
S      25.77400000       2.37300000      21.22200000 
C      24.56600000       2.89300000      19.91900000 
H      23.02100000      -1.47700000      23.04700000 
H      22.57000000       0.41600000      20.90600000 
H      25.06100000      -1.00400000      21.78400000 
H      24.97300000      -0.06100000      20.32100000 
H      23.78500000       1.58500000      22.28000000 
H      25.20600000       0.94200000      23.04800000 
H      25.00700000       3.72400000      19.39900000 
H      24.38100000       2.08000000      19.24200000 
H      23.65800000       3.20400000      20.39900000 
N      21.31500000       0.21000000      16.48100000 
C      21.98000000       0.01700000      15.22400000 
C      21.16500000      -0.80700000      14.26100000 
O      21.66600000      -1.15500000      13.17900000 
C      23.36100000      -0.57800000      15.42700000 
C      24.27200000       0.40900000      16.12000000 
C      25.72300000      -0.04300000      16.13100000 
C      26.54700000       0.93600000      16.94400000 
N      27.99700000       0.58300000      16.95200000 
H      21.50200000      -0.44200000      17.21500000 
H      22.08300000       0.98200000      14.75600000 
H      23.27700000      -1.48200000      16.01300000 
H      23.75600000      -0.83900000      14.45800000 
H      24.20500000       1.36900000      15.62200000 
H      23.93300000       0.54500000      17.13600000 
H      25.80000000      -1.03100000      16.56600000 
H      26.10300000      -0.09500000      15.11800000 
H      26.47300000       1.93400000      16.54500000 
H      26.22700000       0.94600000      17.97000000 
H      28.50400000       1.24200000      17.57000000 
H      28.13500000      -0.35000000      17.30100000 
H      28.38500000       0.63100000      16.02600000 
N      36.70800000      18.69400000      19.30900000 
C      36.93500000      17.31100000      18.94900000 
C      35.72600000      16.76400000      18.22200000 
O      35.82900000      16.07900000      17.18300000 
C      37.24400000      16.51500000      20.20800000 
C      37.46000000      15.03500000      19.91500000 
C      36.44500000      14.10000000      20.53500000 
O      35.98800000      14.40100000      21.69200000 
O      36.14400000      13.05900000      19.90100000 
H      36.74100000      18.95400000      20.27500000 
H      37.75300000      17.24500000      18.25300000 
H      38.12700000      16.95300000      20.64600000 
H      36.43800000      16.64000000      20.90900000 
H      37.47400000      14.84400000      18.85500000 
H      38.42400000      14.72300000      20.30000000 
N      34.54000000      17.05200000      18.73300000 
C      33.33600000      16.58200000      18.10600000 
C      33.07600000      17.21500000      16.76800000 
O      32.27800000      16.65000000      15.99500000 
C      32.15200000      16.80800000      19.02500000 
C      32.08900000      15.72200000      20.08200000 
C      30.93100000      15.96500000      21.02900000 
N      31.31700000      16.70700000      22.22200000 
C      31.53000000      16.11100000      23.38300000 
N      31.75300000      14.80400000      23.40200000 
N      31.51100000      16.79500000      24.51500000 
H      34.47900000      17.56100000      19.59100000 
H      33.43100000      15.52800000      17.89700000 
H      32.22600000      17.78900000      19.47200000 
H      31.24600000      16.77400000      18.44200000 
H      31.95700000      14.77100000      19.58400000 
H      33.01500000      15.67400000      20.63900000 
H      30.16000000      16.53100000      20.53300000 
H      30.47900000      15.04100000      21.34400000 
H      31.31800000      17.69600000      22.18800000 
H      31.92200000      14.29900000      22.56700000 
H      31.55200000      14.28100000      24.22400000 
H      31.19200000      17.74000000      24.59800000 
H      31.69400000      16.34600000      25.38200000 
N      33.68700000      18.35400000      16.48100000 
C      33.52200000      19.02700000      15.22400000 
C      34.64300000      18.73300000      14.26100000 
O      34.69400000      19.34100000      13.17900000 
C      33.34700000      20.52000000      15.42700000 
C      32.03700000      20.81600000      16.12000000 
C      31.70200000      22.29800000      16.13100000 
C      30.44300000      22.52200000      16.94400000 
N      30.02400000      23.95400000      16.95200000 
H      34.15900000      18.84200000      17.21500000 
H      32.63500000      18.63300000      14.75600000 
H      34.17200000      20.90000000      16.01300000 
H      33.37600000      20.99300000      14.45800000 
H      31.23900000      20.27800000      15.62200000 
H      32.08900000      20.45400000      17.13600000 
H      32.52000000      22.85900000      16.56600000 
H      31.55800000      22.65400000      15.11800000 
H      29.61600000      21.95900000      16.54500000 
H      30.59400000      22.24000000      17.97000000 
H      29.19900000      24.06400000      17.57000000 
H      30.76300000      24.54100000      17.30100000 
H      29.78800000      24.26700000      16.02600000 
N      35.52600000      17.79200000      14.58500000 
C      36.54000000      17.37400000      13.66200000 
C      37.84300000      18.10500000      13.75300000 
O      38.76100000      17.75200000      12.98200000 
H      35.48900000      17.35900000      15.48100000 
H      36.75600000      16.33000000      13.82400000 
H      36.18400000      17.49200000      12.65300000 
H      30.96791332      14.22420484       0.63475881 
H      27.65090528       9.54808552      22.88238433 
H      24.75699208       9.08160825      23.67947771 
H      27.37344277       7.00337697      27.07081961 
H      22.03413273      -0.39654626      22.77080092 
H      22.82364383      -2.33825311      19.98947270 
H      21.53906082       1.01338823      16.81917762 
H      20.22886180      -1.06922413      14.49527288 
H      37.32802372      19.21298388      18.91374524 
H      37.95500086      18.84687072      14.41412302 
H      21.99871115       5.79145192       2.41594170 
H      19.88997078       8.25649304       3.32526442 
H      19.71576976       5.36629382       6.97149762 
H      17.55807424       8.96785713       9.01379412 
H      19.38704292       7.35003735      12.91492528 
H      17.80675747      10.26789689      13.58713716 
H      19.85604802      16.55536231       3.19599538 
H      19.09011508      19.36572978       4.85820931 
H      19.31989266      16.19894635       8.23119935 
H      19.75875250      20.09361333      10.98516929 
H      18.93611717      18.09750875      12.91512342 
H      22.45000806      20.37127232      14.80440852 
H      21.04197449      17.76792492      18.38978961 
H      24.15213218      18.87690575      19.04224687 
