 391 
 
N                75.6308620901       54.1590457382      209.8244760404
C                74.9572819235       55.0276733977      208.8066172331
C                73.8021505364       55.8056781758      209.5221731112
O                73.1845549916       55.2576750687      210.4234957037
C                74.3689860833       54.1482763716      207.6374609414
O                73.5478300104       53.0606739130      208.0944203794
H                76.1955202006       53.4171623236      209.3809020454
H                76.2267061727       54.7214345305      210.4513541453
H                74.8735558331       53.7337497667      210.3966995883
H                75.6747929711       55.7213483700      208.3668786832
H                73.7732977875       54.8129667472      207.0058899809
H                75.2102011543       53.7661020434      207.0578096212
H                73.7213693058       52.2786075948      207.5597362092
N                73.4748226301       56.9903963151      208.9534876275
C                72.1902867260       57.5740339909      209.3452282365
C                71.0809149208       56.5655692136      208.8860851149
O                70.3003778792       56.0906014423      209.6993031615
C                72.0986353311       59.0242414422      208.8818083828
C                70.8132356302       59.7482182801      209.3052651508
C                71.0013703361       61.3113027641      209.2140292382
O                71.3454633457       61.8005492348      208.1286673584
O                70.7750343434       61.9746345695      210.2585317781
H                74.1215836145       57.5473697001      208.4170951307
H                72.1211880543       57.5790612999      210.4412368665
H                72.9318604259       59.5508086232      209.3583425967
H                72.2149319105       59.1119286771      207.7989823103
H                69.9713740029       59.4719472379      208.6681343407
H                70.5678492338       59.5028453601      210.3395124065
N                71.1475388716       56.1386867683      207.6078588181
C                70.2793797629       55.1657588476      206.9144044634
C                69.6884136135       53.9928290371      207.7524616579
O                68.4775956174       53.7711631300      207.8062434123
C                71.0819967810       54.5751900293      205.7081332006
C                70.1655266421       53.8759503597      204.7080768010
C                69.7514374560       52.5550707065      204.8968633433
C                69.6877318653       54.5872766703      203.6012754814
C                68.8531386976       51.9818382667      204.0118869316
C                68.7815240043       54.0181206966      202.7270348139
C                68.3554413905       52.7170148605      202.9409800069
H                71.7916291596       56.6183470906      206.9911770313
H                69.3965567340       55.6865813431      206.5188287391
H                71.5798289258       55.3977518202      205.1950482402
H                71.8162523529       53.8614798256      206.0757173911
H                70.1121851091       51.9607347974      205.7221960104
H                70.0131153454       55.6045781569      203.4428950390
H                68.5827713595       50.9449672902      204.1418778109
H                68.4020245971       54.5879467433      201.8926139294
H                67.6318297499       52.2693991324      202.2763269468
N                70.5822692877       53.1723690418      208.3131982816
C                70.0725054191       51.9993107501      208.9578924230
C                69.2025982565       52.3938030501      210.1344812724
O                68.2900775334       51.6810226753      210.5404636130
C                71.2225207662       51.0620766094      209.2866754721
C                71.4277414852       50.1909147386      208.0691346190
C                70.0558349434       49.4432420794      207.7744790592
O                69.3811670696       49.0979313692      208.7762329636
O                69.7963192319       49.2848418347      206.5452244443
H                71.5883248984       53.3200404883      208.2629924298
H                69.3844214014       51.4944915799      208.2680694801
H                72.1080499996       51.6359807633      209.5579044829
H                70.9334457952       50.4176775496      210.1180840864
H                71.6834406594       50.7666268394      207.1811980678
H                72.1827342290       49.4210921767      208.2340570193
N                69.5738660236       53.5562409427      210.7319842848
C                68.9041960488       54.0618435029      211.9239760794
C                67.5750368326       54.7757079482      211.6821706605
O                66.6695993346       54.6043878787      212.4942558426
C                69.7470924700       55.0451167461      212.7305462268
H                70.2386086761       54.1834599918      210.3014070894
H                68.6634354074       53.1879917790      212.5413127160
H                69.1469917866       55.3629541881      213.5751562905
H                70.6653525211       54.5844924546      213.0824047911
H                69.9992733961       55.9184338129      212.1353602867
N                67.5312049444       55.5802021952      210.6113678643
C                66.3218154851       56.2331166820      210.1543624174
C                65.2773373183       55.1216671582      209.9225564883
O                64.1352996897       55.2183583682      210.3697397759
C                66.6012610971       57.1714923499      208.9912906466
C                65.2879915319       57.5741208618      208.3683408253
C                67.3068760417       58.4225092053      209.4894010713
H                68.3876332527       55.7129329428      210.0870055491
H                65.8995288556       56.8334936226      210.9746751728
H                67.2206652857       56.6441756814      208.2544273695
H                65.4330847022       58.2577521334      207.5334747716
H                64.7348136249       56.7078400608      208.0205403548
H                64.6767643604       58.0832234347      209.1108289567
H                67.4984009137       59.1073371272      208.6670556693
H                66.6753885392       58.9351001337      210.2057720280
H                68.2512854386       58.1864002066      209.9750832089
N                65.7256692830       53.9928907935      209.3463914450
C                64.8103932615       52.8516457672      209.2291587134
C                64.2309761020       52.4231642121      210.5891326255
O                63.0396391181       52.1536041965      210.6934696515
C                65.3662244607       51.6216378485      208.4958560121
C                65.8501246669       52.0138382760      207.1038808093
C                64.2533246327       50.5784170804      208.4672668164
C                66.5766887608       50.8942992226      206.3773369057
H                66.6383558396       53.9342958404      208.9193193975
H                63.9392842342       53.2036191087      208.6536728511
H                66.2286199936       51.2347948970      209.0527107141
H                64.9869821188       52.3155475429      206.5030083145
H                66.5295458719       52.8611397907      207.1629205948
H                64.5709132094       49.7290854657      207.8698406816
H                64.0166105267       50.2337188070      209.4668811207
H                63.3616157883       51.0051157072      208.0172228727
H                66.9415608788       51.2624003595      205.4240673124
H                67.4330959436       50.5353327464      206.9439120830
H                65.9224275373       50.0475123752      206.1833392228
N                65.1166058720       52.2769309657      211.5942785404
C                64.6765497229       51.8657920602      212.9373217427
C                63.6041059198       52.8929501654      213.4589550600
O                62.5280763002       52.5299261261      213.9236321569
C                65.8727366166       51.6123586424      213.8728248910
C                65.7730397570       50.3135916863      214.7364300034
C                66.9346969901       50.1425799086      215.8069394364
C                68.0124767461       49.0350890932      215.5680063887
N                68.7703132401       49.0688257511      214.2140936149
H                66.0853593907       52.5149538238      211.4485346666
H                64.1092938366       50.9340860236      212.8042949395
H                66.7812459895       51.6160030572      213.2708027355
H                65.9425439118       52.4593922357      214.5633203707
H                64.8277001663       50.3407543426      215.2690861129
H                65.7662591202       49.4507429886      214.0694710130
H                67.4328434292       51.1049552717      215.9177797259
H                66.4884209722       49.8925323081      216.7640169098
H                68.7547612001       49.1196000594      216.3576504519
H                67.5304452556       48.0600544025      215.6172644273
H                69.4232042472       48.2750637497      214.1896173732
H                68.1095012232       49.0013083478      213.4285326890
H                69.3003057634       49.9448934106      214.1294496891
N                63.8987201586       54.1914125369      213.3164145673
C                63.0456816099       55.1497886140      213.9576698112
C                61.6635758904       55.1357774065      213.3266656444
O                60.6384374132       55.1724145280      214.0132698110
C                63.5858427909       56.5576127669      213.8571087112
C                62.5806759631       57.5122722826      214.4895148157
C                64.9322607031       56.6591660627      214.5504613092
H                64.8092330555       54.4803680753      212.9824283753
H                62.9161606093       54.8832593581      215.0178563994
H                63.7176260827       56.8266396843      212.8026847521
H                63.0090457408       58.5072982261      214.5617078861
H                61.6632525599       57.5891316781      213.9128985008
H                62.3301128603       57.1829440337      215.4948799992
H                65.3048773021       57.6775807936      214.4737326135
H                64.8355836070       56.4081842691      215.6056423646
H                65.6688172597       56.0028247117      214.0964967930
N                61.6610459018       55.1231755094      211.9786402865
C                60.4087616432       55.2549224077      211.2311904892
C                59.5208200726       54.0388224748      211.5353578743
O                58.3032998161       54.0666172787      211.7269205434
C                60.7750653771       55.4390966558      209.7777060768
C                61.2409287961       56.8743501132      209.6486166803
C                59.6479114256       55.0835383434      208.8102062437
C                61.7418415825       57.0074729370      208.2147333780
H                62.5379198981       55.1453743970      211.4709341609
H                59.8630563531       56.1324234835      211.6032972784
H                61.6256845497       54.7781495321      209.5720658867
H                60.4236991564       57.5703399020      209.8333646097
H                62.0508469349       57.0718605977      210.3489836105
H                60.0095215797       55.0562658686      207.7901076347
H                59.2331168067       54.1102461508      209.0544572814
H                58.8499246484       55.8178389435      208.8800810087
H                62.2993645991       57.9336891220      208.0827007432
H                62.4081425699       56.1841856153      207.9738819366
H                60.9137854388       57.0177296586      207.5161441098
N                63.2383479881       50.6884815668      203.7903384079
C                64.5566016608       50.8117160705      203.1994891401
C                64.4855391788       51.0090695261      201.6927145811
O                65.2098442803       51.8303423803      201.1310160313
H                63.0251223724       49.8532361651      204.3273527708
H                65.0922269071       51.6704268508      203.6200453528
H                65.1183021758       49.9039068419      203.4190784912
N                63.2906676317       54.4894329854      201.2639432108
C                64.4195793172       55.3083676805      201.6327118352
C                65.5111215040       55.2926768186      200.5718396144
O                66.1195359435       56.3393295129      200.3480954077
C                65.0149225032       54.9261654252      202.9690213079
C                64.4648498041       55.7730647501      204.0945723862
C                65.1287227626       55.3123113936      205.3852302885
C                64.7550857206       57.2432065642      203.8558586991
H                62.9719011548       53.7717045161      201.9124121244
H                64.0958438312       56.3575794816      201.6521478490
H                64.8157212122       53.8704102646      203.1480297333
H                66.0976194373       55.0707582389      202.9308723103
H                63.3834040546       55.6250728669      204.1713861581
H                64.6463187035       55.7681239059      206.2433830295
H                65.0669674607       54.2337516413      205.4829108824
H                66.1769931026       55.6012625119      205.3944415186
H                64.6709678760       57.8163380221      204.7789319496
H                65.7621441884       57.3925418600      203.4705078289
H                64.0662371633       57.6940605369      203.1473305607
N                65.7540259983       54.1259196531      199.9667965534
C                66.8974350664       53.9524698162      199.0973523155
C                66.6541340276       54.6234446895      197.7122923104
O                67.4659684588       55.4555032354      197.2823109214
C                67.3040381693       52.4751904864      199.0520943893
O                68.6018240491       52.3900006635      198.4983623800
H                65.2761239123       53.2885487712      200.2803982454
H                67.7489239176       54.5101621335      199.5187180129
H                67.2779347579       52.0942199300      200.0746574858
H                66.5834515764       51.9141159430      198.4425704133
H                69.0352172706       51.5895848390      198.8217343253
N                67.0654927766       58.1685018977      198.0189513039
C                68.4449491426       58.6329764518      198.0565513564
C                68.8538659303       58.8060907115      196.6063046414
O                69.3437711844       59.8475967497      196.1945901806
C                69.4399931935       57.6378474528      198.6487818440
C                69.4635759126       57.4843001719      200.1839947180
C                69.9996353961       58.6751438527      200.9445742406
O                69.3120203712       59.3731465026      201.6702002576
N                71.3337147691       58.8539819360      200.8742015087
H                66.7852150780       57.4240972478      198.6534362078
H                68.5154731436       59.6108404447      198.5564556907
H                69.2150215792       56.6535627665      198.2322980836
H                70.4274993242       57.9494260744      198.3029093992
H                68.4498096137       57.2902088013      200.5396770833
H                70.1050024333       56.6343361953      200.4217005611
H                71.8457673172       58.4531552754      200.1023885468
H                71.6774920353       59.7518940370      201.1930747163
N                70.3198964811       62.9701663610      202.8317626159
C                70.6869455084       62.4568004340      204.1311146591
C                69.3610306057       61.8309990033      204.5839695654
O                68.2780598422       62.4131552510      204.4126024398
C                71.2862658022       63.6368194217      205.0141069093
O                71.4909618978       64.9201702162      204.3949365494
H                69.5904575383       63.6705318452      202.9061000140
H                71.4585963619       61.6981986386      203.9842197533
H                70.6346724727       63.7659540639      205.8914623498
H                72.2721353075       63.3371423505      205.3712788925
H                70.6484305422       65.3937028431      204.3434350383
N                69.3123342316       60.5885911798      205.0134004857
C                67.9915446841       60.0591276284      205.2522846566
C                67.2157413556       60.7989293488      206.3356549817
O                65.9990329282       60.8905661082      206.1769901822
C                68.1510944670       58.5662001204      205.5258673027
C                69.6432739237       58.2984217991      205.3519971542
C                70.3619444608       59.6585441973      205.2751830007
H                67.3908799652       60.2412094039      204.3533351366
H                67.8097312431       58.3324293302      206.5330512393
H                67.5537981570       58.0011573831      204.8161447653
H                70.0385970923       57.7231361608      206.1824256367
H                69.8092541524       57.7672348454      204.4164687300
H                70.8658734974       59.9325625027      206.2105192909
H                71.0922235275       59.6815477344      204.4643412381
N                67.8127258302       61.2616795354      207.5135920362
C                67.0954427082       62.2259428323      208.3395287857
C                66.2609554698       63.3393762035      207.6699016599
O                65.2872450229       63.8200946042      208.2457550276
C                68.0629633632       63.0816470519      209.1910788017
O                68.7363633639       64.1004180969      208.4612142231
H                68.8048594206       61.4672234520      207.4544208998
H                66.4028184219       61.6788002332      208.9923536601
H                67.4704214035       63.5227678078      210.0020511598
H                68.8624630654       62.4651453112      209.6210174723
H                68.2896320756       64.9581834213      208.5241949705
N                62.4902104083       63.6067288725      207.6395405638
C                61.6616363902       63.9528100113      208.7746214013
C                61.1192596558       65.3648067292      208.6690980986
O                60.0683857742       65.6599310387      209.2023299935
C                62.4629557536       63.9541112572      210.0823852403
C                63.0279286092       62.6188788849      210.4998791884
C                62.3539722531       61.4003509833      210.4093745694
C                64.3087020840       62.6084084628      211.0182840040
C                62.9538897634       60.2146805112      210.8126949174
C                64.9335173458       61.4420821827      211.4170174097
C                64.2632060239       60.2320057155      211.3118995866
O                64.8582509081       59.0844753361      211.6855921425
H                63.4812842287       63.7877778158      207.7117420182
H                60.8186061389       63.2552093983      208.8094846693
H                63.2822350054       64.6720774278      209.9642896454
H                61.8021842835       64.3413111191      210.8677692504
H                61.3442200061       61.3809977374      210.0298571879
H                64.8378564488       63.5529647965      211.0934366460
H                62.4309499168       59.2773366192      210.7307515562
H                65.9377263920       61.4894866206      211.8098543272
H                65.6454719496       59.2619947339      212.2435670850
O                66.9358020102       59.3895497033      213.5553153445
H                67.8758894493       59.1502454300      213.5451778177
H                66.7447360684       59.8061768690      214.4083048092
N                72.8787222183       68.5531126938      208.0106638643
C                73.0988269326       67.1058113928      207.9730627992
C                74.2488245770       66.9026638840      207.0097265551
O                74.1993583495       67.5526302939      205.9598238448
C                71.8247673049       66.3996552385      207.4565285691
O                70.7152584575       66.7279510375      208.3098931453
H                72.0103178929       68.8585657988      207.6032714746
H                73.3161902506       66.7589881560      208.9923645814
H                71.6165148422       66.7349297643      206.4304965597
H                71.9748102725       65.3109551738      207.4519187539
H                69.8618995925       66.5151953948      207.9043724035
N                67.3537346347       53.9889840654      219.9289166292
C                68.5714132151       54.7765105666      220.0169530808
C                68.1582496764       56.1890666401      220.4555500138
O                67.6156788004       56.9624908662      219.6617072297
C                69.4204641624       54.9567889412      218.7463670153
C                70.7463669171       55.6209193562      219.1587851842
C                69.5588393240       53.6616833983      217.9476139425
H                66.6675912001       54.2564212945      219.2408653259
H                69.1676045078       54.2945403619      220.7988985909
H                68.8821197232       55.6688641151      218.1090868149
H                71.3509938151       55.8377697062      218.2814655118
H                70.5492007544       56.5544691283      219.6804078409
H                71.3139410306       54.9693404096      219.8179668838
H                70.1253237057       53.8567145275      217.0415109166
H                70.0731109892       52.9073129842      218.5369387347
H                68.5700156439       53.2999286182      217.6870881029
N                68.9024792401       59.3047389572      217.9448969019
C                68.1751660039       59.1473254768      216.6992055690
C                66.7147179982       59.5062895720      216.9799484181
O                66.0802327493       60.2096830710      216.1885398661
C                68.2401616734       57.7492958142      216.0722977988
C                69.6341357253       57.3377425238      215.5963917774
C                70.3659406977       58.4240448921      214.7696051426
O                69.8581880313       58.7624405379      213.6423997836
O                71.3925995957       58.8847225058      215.2869932458
H                69.3755197733       58.5009751354      218.3292261561
H                68.5638720898       59.8846802186      215.9819258447
H                67.8735900002       57.0233246547      216.8010190521
H                67.5577277478       57.7438645355      215.2228768372
H                70.2928128068       57.1386047836      216.4417192895
H                69.5497846284       56.4388326125      214.9946132064
N                66.5112651576       63.2879701229      217.1650117761
C                66.6824211070       63.8747259363      215.8257042877
C                65.3390848939       63.8590811239      215.0467129740
O                64.9217565746       64.7672105069      214.3306364326
C                67.7500601220       63.0671092064      215.0863444176
C                68.2202829489       63.5882649402      213.7392577021
C                68.9455896461       62.4891816542      212.9487028063
C                70.2863561612       62.1273528368      213.5570830036
N                70.8556458538       60.9916132817      212.8237683198
H                67.0857877252       62.4865170739      217.3967687007
H                66.9898693182       64.9238440323      215.9121466965
H                68.6094705734       62.9875521823      215.7554211162
H                67.3471482493       62.0593280554      214.9485674439
H                67.3605140159       63.9272208951      213.1564272515
H                68.8914043014       64.4375932801      213.8694621364
H                68.3206138804       61.5952774780      212.9003031400
H                69.1311603145       62.8286814891      211.9301929648
H                70.9662341696       62.9812993965      213.5057291884
H                70.1938518908       61.8371451479      214.6069739835
H                71.8520958084       60.8893745612      213.0595178822
H                70.4008012536       60.0297295471      213.1002506866
H                70.7985168438       61.2194030270      211.7963010812
N                64.6449792446       62.7445173386      215.2676502102
C                63.3679166707       62.6105611756      214.6362021488
C                62.4805386355       63.6903434198      215.2008696887
O                61.7860892583       64.3741608424      214.4807785342
C                62.8474150732       61.1987137899      214.8299694322
C                61.3799717717       61.1507513520      214.6251597759
C                60.8296337987       60.6405557135      213.4820627443
C                60.4977207277       61.5698533136      215.5928446378
C                59.4590053894       60.4678679321      213.3297190598
C                59.1334150664       61.4117655081      215.4292258801
C                58.5751576166       60.8271996327      214.3077292828
H                65.0489336864       61.9579369344      215.7609278459
H                63.4628270582       62.8358167121      213.5609998490
H                63.3742100048       60.5504192287      214.1295896724
H                63.0900585693       60.8940902954      215.8522065078
H                61.4826767420       60.3232747945      212.6828412805
H                60.8624787169       61.9711326595      216.5257713449
H                59.1096881042       60.0186484195      212.4105826167
H                58.4823936917       61.7588938006      216.2205983971
H                57.5132332973       60.6701362785      214.2253136958
N                75.2989989264       63.2859339091      212.3819777038
C                75.2242253952       61.9933079445      211.7249630860
C                74.2589697412       60.9103923483      212.4642619347
O                73.8456891937       61.1440370565      213.6264155842
O                73.9890502576       59.9133506969      211.7622993509
H                74.5170656492       63.9035836091      212.2080074792
H                74.8615377282       62.1116797284      210.7079313923
H                76.2127367722       61.5337045048      211.7260303402
H                59.9253047831       53.1260277005      211.5919071361
H                63.1000523041       51.3703762476      204.3612096264
H                63.8451294441       50.4683563141      201.1472747640
H                62.5701721749       55.0125481485      201.1326541295
H                65.8460831053       54.3821498242      197.1748627848
H                66.5128432870       58.8525552654      198.2103919785
H                68.7250890427       58.0560666561      195.9575516609
H                71.0393716707       63.3459699308      202.4430118880
H                66.5114116187       63.6742121830      206.7615203609
H                62.4218073190       62.7244436266      207.4755473865
H                61.6271310630       66.0586573523      208.1585709724
H                72.8772073738       68.8346544496      208.8654924699
H                74.9892544640       66.2715626725      207.2409728376
H                67.5614602278       53.1354696000      219.7330515346
H                68.3281983818       56.4911110010      221.3935727436
H                69.5478000035       59.9232363313      217.8399106615
H                66.2678376163       59.1706091129      217.8091748972
H                66.6997857894       63.9069902913      217.7905307627
H                62.4572768437       63.8534313067      216.1872069689
H                75.3384664817       63.1680395532      213.2733492498
