 386 
 
N                12.9000000000       60.5330000000      123.4360000000
C                12.4270000000       59.1630000000      123.2250000000
C                11.3640000000       59.0000000000      122.1290000000
O                11.5310000000       58.1920000000      121.2170000000
C                11.9100000000       58.5270000000      124.5260000000
C                11.4020000000       57.0990000000      124.2600000000
C                12.4560000000       56.3070000000      123.4940000000
C                10.9730000000       56.3230000000      125.4970000000
H                12.7000000000       60.8220000000      124.4150000000
H                13.9250000000       60.5760000000      123.2640000000
H                12.4110000000       61.1740000000      122.7790000000
H                13.3060000000       58.6180000000      122.8810000000
H                12.7190000000       58.4800000000      125.2550000000
H                11.0870000000       59.1230000000      124.9210000000
H                10.4940000000       57.2110000000      123.6670000000
H                12.0820000000       55.2990000000      123.3140000000
H                12.6540000000       56.8050000000      122.5450000000
H                13.3690000000       56.2640000000      124.0880000000
H                10.6330000000       55.3330000000      125.1940000000
H                11.8240000000       56.2340000000      126.1730000000
H                10.1620000000       56.8600000000      125.9890000000
N                10.2660000000       59.7460000000      122.2280000000
C                 9.1480000000       59.5860000000      121.2930000000
C                 9.6360000000       59.8070000000      119.8890000000
O                 8.8470000000       59.9410000000      118.9600000000
C                 8.0170000000       60.5940000000      121.5660000000
C                 7.0430000000       60.2070000000      122.6940000000
C                 7.5740000000       60.5250000000      124.0990000000
O                 8.4230000000       61.4090000000      124.2640000000
N                 7.0760000000       59.8010000000      125.1130000000
H                10.1180000000       60.4640000000      122.9370000000
H                 8.7450000000       58.5810000000      121.4170000000
H                 8.4670000000       61.5490000000      121.8390000000
H                 7.4300000000       60.7060000000      120.6540000000
H                 6.1110000000       60.7560000000      122.5580000000
H                 6.8550000000       59.1350000000      122.6440000000
H                 6.3780000000       59.0800000000      124.9300000000
H                 7.3950000000       59.9720000000      126.0670000000
N                10.9540000000       59.8340000000      119.7630000000
C                11.6570000000       60.3070000000      118.5960000000
C                12.6970000000       59.2650000000      118.2640000000
O                12.7140000000       58.7340000000      117.1600000000
C                12.3470000000       61.6320000000      118.9390000000
C                12.6950000000       61.7920000000      120.4460000000
C                12.1730000000       63.1190000000      121.0290000000
C                12.3340000000       63.2080000000      122.5440000000
N                12.3300000000       64.6330000000      122.9750000000
H                11.5910000000       59.5170000000      120.4940000000
H                10.9920000000       60.4730000000      117.7480000000
H                13.2770000000       61.6980000000      118.3750000000
H                11.6850000000       62.4530000000      118.6630000000
H                12.2420000000       60.9740000000      121.0060000000
H                13.7780000000       61.7720000000      120.5670000000
H                12.7280000000       63.9450000000      120.5830000000
H                11.1120000000       63.2150000000      120.7980000000
H                11.5070000000       62.6930000000      123.0320000000
H                13.2810000000       62.7560000000      122.8400000000
H                12.4390000000       64.6930000000      124.0080000000
H                13.1150000000       65.1440000000      122.5220000000
H                11.4330000000       65.0840000000      122.7040000000
N                13.5540000000       58.9630000000      119.2410000000
C                14.5990000000       57.9540000000      119.0790000000
C                13.9990000000       56.6160000000      118.6780000000
O                14.6740000000       55.8030000000      118.0770000000
C                15.4650000000       57.7990000000      120.3460000000
C                16.9830000000       58.1120000000      120.1510000000
C                17.9210000000       57.1830000000      120.9840000000
C                19.3510000000       57.0340000000      120.3530000000
N                20.2000000000       55.8460000000      120.8100000000
H                13.5510000000       59.4020000000      120.1620000000
H                15.2830000000       58.2910000000      118.3000000000
H                15.0860000000       58.4800000000      121.1080000000
H                15.3860000000       56.7690000000      120.6940000000
H                17.2370000000       57.9850000000      119.0990000000
H                17.1730000000       59.1400000000      120.4590000000
H                18.0370000000       57.6010000000      121.9840000000
H                17.4750000000       56.1900000000      121.0440000000
H                19.2330000000       56.9400000000      119.2730000000
H                19.9170000000       57.9350000000      120.5890000000
H                21.1190000000       55.8570000000      120.3230000000
H                20.3610000000       55.8980000000      121.8360000000
H                19.7120000000       54.9540000000      120.5890000000
N                12.7330000000       56.3810000000      118.9960000000
C                12.0730000000       55.1590000000      118.5390000000
C                11.6530000000       55.2660000000      117.0910000000
O                11.5980000000       54.2820000000      116.3560000000
C                10.8050000000       54.8670000000      119.3280000000
C                11.1080000000       54.8380000000      120.8170000000
C                10.2320000000       53.5380000000      118.8900000000
C                12.1870000000       53.8710000000      121.1720000000
H                12.1460000000       56.9990000000      119.5560000000
H                12.8060000000       54.3650000000      118.6850000000
H                10.0780000000       55.6560000000      119.1360000000
H                11.4290000000       55.8310000000      121.1320000000
H                10.2060000000       54.5490000000      121.3560000000
H                 9.3250000000       53.3370000000      119.4600000000
H                10.0000000000       53.5850000000      117.8260000000
H                10.9680000000       52.7560000000      119.0750000000
H                12.3510000000       53.9020000000      122.2490000000
H                11.8790000000       52.8690000000      120.8720000000
H                13.1010000000       54.1510000000      120.6480000000
N                11.3320000000       56.4810000000      116.6940000000
C                10.9240000000       56.7360000000      115.3360000000
C                12.0360000000       56.4710000000      114.3300000000
O                11.8100000000       55.8550000000      113.3020000000
C                10.4140000000       58.1520000000      115.2380000000
C                 9.1610000000       58.3550000000      116.0460000000
C                 8.5150000000       59.6790000000      115.7390000000
O                 9.2240000000       60.5490000000      115.1800000000
O                 7.3110000000       59.8480000000      116.0490000000
H                11.3450000000       57.3090000000      117.2900000000
H                10.1150000000       56.0540000000      115.0740000000
H                11.1770000000       58.8340000000      115.6130000000
H                10.1890000000       58.3810000000      114.1960000000
H                 8.4490000000       57.5640000000      115.8120000000
H                 9.4090000000       58.3320000000      117.1070000000
N                13.2450000000       56.9140000000      114.6240000000
C                14.3570000000       56.5530000000      113.7630000000
C                14.5200000000       55.0410000000      113.7360000000
O                15.1040000000       54.4950000000      112.8180000000
C                15.6560000000       57.2060000000      114.2350000000
C                15.5850000000       58.7200000000      114.3600000000
C                16.9120000000       59.3190000000      114.7670000000
O                16.9830000000       59.9510000000      115.8430000000
O                17.8890000000       59.1370000000      114.0130000000
H                13.4810000000       57.5040000000      115.4220000000
H                14.1720000000       56.9260000000      112.7560000000
H                15.9110000000       56.8050000000      115.2160000000
H                16.4440000000       56.9700000000      113.5200000000
H                15.3000000000       59.1460000000      113.3980000000
H                14.8460000000       58.9830000000      115.1170000000
N                14.0110000000       54.3590000000      114.7480000000
C                14.1380000000       52.9170000000      114.7850000000
C                13.1650000000       52.3560000000      113.7890000000
O                13.5390000000       51.6040000000      112.8880000000
C                13.7860000000       52.3560000000      116.1720000000
C                14.8190000000       52.8030000000      117.1950000000
C                13.7120000000       50.8320000000      116.1590000000
C                14.4800000000       52.3990000000      118.5920000000
H                13.5160000000       54.7680000000      115.5400000000
H                15.1690000000       52.6480000000      114.5540000000
H                12.8050000000       52.7470000000      116.4420000000
H                15.7810000000       52.3580000000      116.9420000000
H                14.8930000000       53.8900000000      117.1690000000
H                13.4610000000       50.4800000000      117.1600000000
H                12.9430000000       50.5200000000      115.4520000000
H                14.6800000000       50.4320000000      115.8560000000
H                15.2630000000       52.7520000000      119.2630000000
H                13.5240000000       52.8440000000      118.8680000000
H                14.4120000000       51.3120000000      118.6400000000
N                11.9050000000       52.7380000000      113.9680000000
C                10.8340000000       52.2530000000      113.1250000000
C                11.1350000000       52.5200000000      111.6460000000
O                11.0010000000       51.6370000000      110.8010000000
C                 9.5310000000       52.8780000000      113.5370000000
H                11.5970000000       53.3860000000      114.6930000000
H                10.7380000000       51.1750000000      113.2560000000
H                 8.7370000000       52.5020000000      112.8920000000
H                 9.3230000000       52.6140000000      114.5740000000
H                 9.6090000000       53.9610000000      113.4370000000
N                11.5700000000       53.7270000000      111.3260000000
C                11.8790000000       54.0160000000      109.9410000000
C                13.0610000000       53.1920000000      109.4480000000
O                13.2280000000       53.0220000000      108.2600000000
C                12.1100000000       55.4960000000      109.7300000000
H                11.7130000000       54.4970000000      111.9790000000
H                11.0170000000       53.7610000000      109.3240000000
H                12.3390000000       55.6730000000      108.6790000000
H                11.2080000000       56.0390000000      110.0100000000
H                12.9460000000       55.8170000000      110.3520000000
N                13.8890000000       52.6760000000      110.3390000000
C                14.8830000000       51.7270000000      109.8730000000
C                14.0930000000       50.5650000000      109.2860000000
O                14.2600000000       50.1800000000      108.1300000000
C                15.7510000000       51.1830000000      111.0190000000
C                16.5850000000       52.1890000000      111.7920000000
C                17.4620000000       52.9960000000      110.8680000000
C                17.6180000000       54.4340000000      111.3700000000
N                17.9500000000       55.3780000000      110.2610000000
H                13.8980000000       52.8830000000      111.3380000000
H                15.5600000000       52.2100000000      109.1680000000
H                15.0910000000       50.6990000000      111.7390000000
H                16.4440000000       50.4540000000      110.5990000000
H                15.9250000000       52.8740000000      112.3250000000
H                17.2250000000       51.6620000000      112.5000000000
H                18.4510000000       52.5400000000      110.8170000000
H                17.0130000000       53.0250000000      109.8750000000
H                16.6830000000       54.7590000000      111.8260000000
H                18.4230000000       54.4730000000      112.1040000000
H                18.0490000000       56.3440000000      110.6340000000
H                18.8440000000       55.0970000000      109.8100000000
H                17.1940000000       55.3680000000      109.5470000000
N                12.8390000000       47.7728223045      119.9780078328
C                11.8580000000       48.7978223045      120.3470078328
C                11.6390000000       48.7458223045      121.8410078328
O                11.6810000000       49.7578223045      122.5450078328
C                10.5010000000       48.5158223045      119.6610078328
C                 9.3270000000       49.0058223045      120.5080078328
C                10.4660000000       49.1228223045      118.2660078328
H                12.5470000000       47.2018223045      119.1850078328
H                12.2400000000       49.7688223045      120.0340078328
H                10.3910000000       47.4358223045      119.5600078328
H                 8.3960000000       48.7858223045      119.9850078328
H                 9.3440000000       48.4918223045      121.4690078328
H                 9.4230000000       50.0808223045      120.6600078328
H                 9.5000000000       48.9078223045      117.8100078328
H                10.6090000000       50.2008223045      118.3440078328
H                11.2650000000       48.6848223045      117.6680078328
N                14.7940000000       49.6028223045      123.9700078328
C                14.9170000000       51.0418223045      124.2120078328
C                13.9300000000       51.5648223045      125.2510078328
O                14.3360000000       52.1418223045      126.2610078328
C                14.7950000000       51.8468223045      122.9230078328
C                16.1210000000       52.0888223045      122.2390078328
C                17.1030000000       52.8238223045      123.1580078328
C                18.5220000000       52.7468223045      122.5910078328
N                19.5070000000       53.5948223045      123.3260078328
H                14.3680000000       49.3438223045      123.0800078328
H                15.9220000000       51.1878223045      124.6080078328
H                14.1540000000       51.3038223045      122.2280078328
H                14.3560000000       52.8168223045      123.1540078328
H                16.5630000000       51.1318223045      121.9610078328
H                15.9620000000       52.6988223045      121.3500078328
H                16.8160000000       53.8728223045      123.2360078328
H                17.0970000000       52.3608223045      124.1450078328
H                18.8670000000       51.7138223045      122.6450078328
H                18.5050000000       53.0808223045      121.5530078328
H                20.4490000000       53.5008223045      122.8950078328
H                19.2160000000       54.5928223045      123.2870078328
H                19.5600000000       53.2978223045      124.3210078328
N                12.6400000000       51.3648223045      124.9960078328
C                11.6020000000       51.8548223045      125.8860078328
C                11.8560000000       51.4258223045      127.3160078328
O                11.4500000000       52.0788223045      128.2730078328
C                10.2550000000       51.3508223045      125.4220078328
S                 9.6140000000       52.3668223045      124.1400078328
H                12.2830000000       50.8668223045      124.1800078328
H                11.5870000000       52.9438223045      125.8560078328
H                10.3600000000       50.3358223045      125.0400078328
H                 9.5550000000       51.3648223045      126.2580078328
N                15.0490000000       53.8988223045      128.8280078328
C                14.6170000000       55.2068223045      129.2710078328
C                13.7810000000       55.0208223045      130.5080078328
O                13.9080000000       55.7528223045      131.4800078328
C                13.7880000000       55.8728223045      128.1960078328
C                14.5050000000       55.9248223045      126.8720078328
O                15.7060000000       55.5678223045      126.8070078328
O                13.8580000000       56.3268223045      125.8880078328
H                14.8040000000       53.6618223045      127.8670078328
H                15.4750000000       55.8488223045      129.4710078328
H                12.8630000000       55.3118223045      128.0590078328
H                13.5630000000       56.8948223045      128.5000078328
N                24.0462128589       61.0950847058      121.5420011190
C                23.6053829170       61.9015448488      120.3990011190
C                22.9391716703       63.2076331210      120.7800011190
O                22.2799057930       63.3157511257      121.8140011190
C                22.5803176562       61.1700797361      119.5030011190
C                22.5621273492       61.7925732001      118.1070011190
C                22.8643167805       59.6839806487      119.4270011190
H                23.8019320228       60.1079778863      121.4570011190
H                24.5446269791       62.1063632851      119.8850011190
H                21.5916364625       61.2836336762      119.9480011190
H                21.8350280768       61.2632003182      117.4920011190
H                22.2842518899       62.8432787864      118.1910011190
H                23.5555143142       61.7051698951      117.6660011190
H                22.1187463650       59.2126148084      118.7870011190
H                23.8597825839       59.5341779973      119.0100011190
H                22.8143090484       59.2613647159      120.4300011190
N                 2.9330000000       60.1088223045      129.8640078328
C                 3.2660000000       61.0288223045      128.7900078328
C                 3.5960000000       60.3208223045      127.4710078328
O                 3.6570000000       60.9458223045      126.4170078328
C                 4.4280000000       61.9068223045      129.2380078328
C                 4.1520000000       62.5778223045      130.5670078328
C                 5.4080000000       63.1768223045      131.1670078328
N                 5.1320000000       63.7778223045      132.4720078328
C                 5.1440000000       65.0848223045      132.7250078328
N                 5.4400000000       65.9458223045      131.7590078328
N                 4.8700000000       65.5308223045      133.9480078328
H                 3.7110000000       59.9068223045      130.4910078328
H                 2.4150000000       61.6778223045      128.5840078328
H                 5.3210000000       61.2908223045      129.3460078328
H                 4.5980000000       62.6838223045      128.4920078328
H                 3.4280000000       63.3788223045      130.4220078328
H                 3.7580000000       61.8408223045      131.2670078328
H                 6.1560000000       62.3948223045      131.2990078328
H                 5.7920000000       63.9528223045      130.5040078328
H                 4.9140000000       63.1488223045      133.2450078328
H                 5.6580000000       65.6058223045      130.8220078328
H                 5.4490000000       66.9468223045      131.9530078328
H                 4.6500000000       64.8708223045      134.6940078328
H                 4.8800000000       66.5328223045      134.1400078328
N                 3.7980000000       59.0128223045      127.5330078328
C                 4.0990000000       58.2078223045      126.3490078328
C                 2.9430000000       58.1648223045      125.3410078328
O                 1.7750000000       58.0888223045      125.7280078328
C                 4.4380000000       56.7738223045      126.7890078328
C                 5.7330000000       56.7898223045      127.6030078328
C                 4.4950000000       55.8118223045      125.5950078328
C                 6.1670000000       55.4368223045      128.0900078328
H                 3.7610000000       58.4678223045      128.3950078328
H                 4.9410000000       58.6858223045      125.8490078328
H                 3.6400000000       56.3978223045      127.4290078328
H                 6.5330000000       57.1898223045      126.9790078328
H                 5.5880000000       57.4258223045      128.4770078328
H                 4.7370000000       54.8118223045      125.9560078328
H                 3.5240000000       55.8028223045      125.1000078328
H                 5.2630000000       56.1528223045      124.9010078328
H                 7.0920000000       55.5438223045      128.6560078328
H                 5.3860000000       55.0218223045      128.7280078328
H                 6.3300000000       54.7858223045      127.2310078328
N                 3.2590000000       58.2198223045      124.0500078328
C                 2.2400000000       58.0288223045      123.0250078328
C                 2.7520000000       57.0318223045      122.0180078328
O                 2.6170000000       57.2228223045      120.8190078328
C                 1.9160000000       59.3508223045      122.3310078328
O                 3.0820000000       60.1438223045      122.2040078328
H                 4.1980000000       58.3928223045      123.6910078328
H                 1.3250000000       57.6518223045      123.4820078328
H                 1.5160000000       59.1438223045      121.3380078328
H                 1.1790000000       59.8928223045      122.9240078328
H                 2.8660000000       60.9888223045      121.7570078328
N                 3.3640000000       55.9648223045      122.5020078328
C                 4.0180000000       55.0468223045      121.5900078328
C                 3.4090000000       53.6558223045      121.6390078328
O                 3.9660000000       52.6858223045      121.1150078328
C                 5.5180000000       54.9748223045      121.8640078328
C                 6.3400000000       56.2568223045      121.8980078328
C                 7.7230000000       55.9638223045      121.3480078328
C                 5.6650000000       57.3778223045      121.1260078328
H                 3.4220000000       55.7178223045      123.4900078328
H                 3.8970000000       55.4308223045      120.5770078328
H                 5.6470000000       54.5038223045      122.8390078328
H                 5.9590000000       54.3498223045      121.0870078328
H                 6.4290000000       56.6088223045      122.9260078328
H                 8.3150000000       56.8788223045      121.3710078328
H                 8.1960000000       55.1998223045      121.9650078328
H                 7.6290000000       55.6078223045      120.3220078328
H                 6.2880000000       58.2708223045      121.1790078328
H                 5.5430000000       57.0698223045      120.0870078328
H                 4.6900000000       57.5778223045      121.5710078328
N                 5.8610000000       49.4288223045      123.7350078328
C                 6.7400000000       50.3848223045      124.3860078328
C                 6.2380000000       50.7478223045      125.7690078328
O                 6.9920000000       50.7328223045      126.7490078328
C                 6.8220000000       51.6518223045      123.5550078328
S                 7.7030000000       53.0158223045      124.3490078328
H                 5.3590000000       49.8188223045      122.9380078328
H                 7.7280000000       49.9318223045      124.4710078328
H                 7.3410000000       51.4228223045      122.6240078328
H                 5.8090000000       51.9938223045      123.3430078328
N                 8.4810000000       50.0438223045      128.8790078328
C                 8.9380000000       51.1938223045      129.6280078328
C                 8.5900000000       51.0348223045      131.0920078328
O                 9.4590000000       51.0798223045      131.9570078328
C                 8.2880000000       52.4618223045      129.0960078328
C                 8.7110000000       53.6948223045      129.8280078328
C                 9.7150000000       54.5068223045      129.3240078328
C                 8.1160000000       54.0348223045      131.0330078328
C                10.1130000000       55.6398223045      130.0030078328
C                 8.5070000000       55.1648223045      131.7180078328
C                 9.5120000000       55.9668223045      131.2050078328
H                 7.9690000000       50.2818223045      128.0300078328
H                10.0180000000       51.2798223045      129.5090078328
H                 8.5610000000       52.5848223045      128.0480078328
H                 7.2060000000       52.3698223045      129.1920078328
H                10.1910000000       54.2498223045      128.3890078328
H                 7.3370000000       53.4068223045      131.4400078328
H                10.8910000000       56.2688223045      129.5970078328
H                 8.0310000000       55.4238223045      132.6520078328
H                 9.8270000000       56.8488223045      131.7440078328
H                 2.2716514971       60.4581534314      130.3645934114
H                 2.5359891778       53.5083094374      122.1038648629
H                 6.3448325836       48.7317951435      123.4349092360
H                 5.2809754766       51.0056242195      125.9018319052
H                 9.1885947421       49.5452232553      128.6326165403
H                 7.6395021921       50.8904967898      131.3671878885
H                13.4134806610       50.0894949122      109.8447024068
H                13.6166925217       48.1674893035      119.7556740712
H                11.4530183070       47.8713177497      122.2889504559
H                15.6110293954       49.2255213579      123.9803501130
H                12.3683631215       50.5876750889      127.5030727323
H                15.9455616592       53.8436350172      128.8839681268
H                13.1036463746       54.2862483810      130.5479229559
H                24.9414095638       61.1470843468      121.6189354872
H                23.0298350180       64.0070538552      120.1861100118
