 144 
 
N                41.6400000000       27.8550000000        1.0950000000
C                42.5180000000       28.3950000000        0.0570000000
C                42.4770000000       27.5510000000       -1.2160000000
O                43.5200000000       27.1970000000       -1.7570000000
C                43.9690000000       28.4780000000        0.5630000000
C                44.4570000000       29.6650000000        1.4090000000
C                45.8090000000       29.3260000000        2.0240000000
C                44.5710000000       30.9220000000        0.5500000000
H                42.1330000000       27.3550000000        1.8350000000
H                42.1670000000       29.3980000000       -0.1870000000
H                44.1420000000       27.5900000000        1.1710000000
H                44.6120000000       28.4580000000       -0.3170000000
H                43.7410000000       29.8650000000        2.2070000000
H                46.1490000000       30.1710000000        2.6220000000
H                45.7010000000       28.4440000000        2.6550000000
H                46.5220000000       29.1260000000        1.2250000000
H                44.9190000000       31.7470000000        1.1720000000
H                45.2820000000       30.7380000000       -0.2550000000
H                43.5910000000       31.1570000000        0.1340000000
N                41.2770000000       27.2370000000       -1.6960000000
C                41.1210000000       26.4310000000       -2.9080000000
C                41.1220000000       27.2400000000       -4.2090000000
O                40.0580000000       27.5150000000       -4.7690000000
C                39.8240000000       25.6200000000       -2.8440000000
C                39.8240000000       24.5100000000       -1.8190000000
S                38.2560000000       23.6350000000       -1.7980000000
C                38.5230000000       22.4000000000       -3.0870000000
H                40.3950000000       27.5240000000       -1.2710000000
H                42.0110000000       25.8020000000       -2.9150000000
H                39.0050000000       26.2950000000       -2.5970000000
H                39.6510000000       25.1660000000       -3.8200000000
H                40.6120000000       23.7960000000       -2.0600000000
H                39.9940000000       24.9330000000       -0.8290000000
H                37.6270000000       21.7860000000       -3.1810000000
H                38.7250000000       22.9090000000       -4.0290000000
H                39.3740000000       21.7770000000       -2.8110000000
N                42.3090000000       27.6130000000       -4.6890000000
C                42.4300000000       28.3740000000       -5.9360000000
C                42.4350000000       27.4330000000       -7.1440000000
O                42.9680000000       26.3240000000       -7.0740000000
C                43.7150000000       29.2210000000       -5.9400000000
C                43.6100000000       30.5530000000       -5.2080000000
C                44.9050000000       31.3410000000       -5.3010000000
C                44.7920000000       32.6460000000       -4.5390000000
N                46.0670000000       33.3990000000       -4.5560000000
H                43.2020000000       27.4060000000       -4.2410000000
H                41.5770000000       29.0470000000       -6.0210000000
H                44.5080000000       28.6470000000       -5.4610000000
H                43.9830000000       29.4370000000       -6.9740000000
H                42.8130000000       31.1490000000       -5.6540000000
H                43.3940000000       30.3710000000       -4.1550000000
H                45.7190000000       30.7570000000       -4.8700000000
H                45.1200000000       31.5670000000       -6.3450000000
H                44.0220000000       33.2660000000       -4.9980000000
H                44.5320000000       32.4360000000       -3.5010000000
H                45.9620000000       34.2880000000       -4.0270000000
H                46.8210000000       32.8320000000       -4.1170000000
H                46.3370000000       33.6190000000       -5.5360000000
N                41.8300000000       27.8800000000       -8.2450000000
C                41.7630000000       27.1010000000       -9.4840000000
C                42.5330000000       27.8860000000      -10.5680000000
O                42.1380000000       28.9990000000      -10.9370000000
C                40.2920000000       26.9020000000       -9.8880000000
C                40.0200000000       25.7660000000      -10.8790000000
C                40.1650000000       24.3870000000      -10.2440000000
C                39.7960000000       23.2910000000      -11.2340000000
N                40.0260000000       21.9230000000      -10.6940000000
H                41.3720000000       28.7890000000       -8.3110000000
H                42.2300000000       26.1230000000       -9.3660000000
H                39.7160000000       26.6890000000       -8.9870000000
H                39.9370000000       27.8240000000      -10.3480000000
H                39.0010000000       25.8580000000      -11.2560000000
H                40.7300000000       25.8340000000      -11.7030000000
H                41.1990000000       24.2370000000       -9.9320000000
H                39.5010000000       24.3120000000       -9.3830000000
H                38.7390000000       23.3800000000      -11.4850000000
H                40.4030000000       23.4050000000      -12.1320000000
H                39.7600000000       21.2110000000      -11.4040000000
H                41.0300000000       21.8000000000      -10.4520000000
H                39.4520000000       21.7770000000       -9.8390000000
N                43.6320000000       27.3060000000      -11.0600000000
C                44.4860000000       27.9500000000      -12.0670000000
C                44.1250000000       27.6460000000      -13.5230000000
O                45.0110000000       27.1480000000      -14.2520000000
C                45.9570000000       27.5750000000      -11.8050000000
C                46.2720000000       26.0740000000      -11.9010000000
C                47.5850000000       25.6880000000      -11.2330000000
O                47.6460000000       25.7010000000       -9.9860000000
O                48.5550000000       25.3690000000      -11.9530000000
O                42.9690000000       27.9130000000      -13.9240000000
H                43.9620000000       26.3820000000      -10.7800000000
H                44.3370000000       29.0250000000      -11.9630000000
H                46.5790000000       28.0870000000      -12.5390000000
H                46.2220000000       27.9010000000      -10.7990000000
H                45.4730000000       25.5140000000      -11.4150000000
H                46.3370000000       25.7940000000      -12.9520000000
N                35.6910000000       21.0290000000      -11.1660000000
C                35.6340000000       21.3050000000       -9.7220000000
C                34.1750000000       21.2420000000       -9.2120000000
O                33.4040000000       22.1820000000       -9.4200000000
C                36.2250000000       22.6970000000       -9.4510000000
C                36.5140000000       23.0190000000       -7.9910000000
C                37.8050000000       22.3980000000       -7.4990000000
O                38.8490000000       22.5990000000       -8.1570000000
O                37.7770000000       21.7160000000       -6.4520000000
H                35.0510000000       21.6050000000      -11.7130000000
H                36.1870000000       20.5250000000       -9.1990000000
H                37.1670000000       22.7800000000       -9.9930000000
H                35.5190000000       23.4440000000       -9.8130000000
H                36.5940000000       24.1000000000       -7.8750000000
H                35.7000000000       22.6370000000       -7.3750000000
N                33.8080000000       20.1440000000       -8.5420000000
C                32.4390000000       19.9400000000       -8.0290000000
C                31.9400000000       20.9390000000       -6.9580000000
O                30.7610000000       21.3080000000       -6.9520000000
C                32.2750000000       18.5000000000       -7.4960000000
C                32.4090000000       17.4180000000       -8.5540000000
C                33.6530000000       16.8730000000       -8.8630000000
C                31.2840000000       16.9390000000       -9.2280000000
C                33.7740000000       15.8640000000       -9.8190000000
C                31.3960000000       15.9330000000      -10.1850000000
C                32.6430000000       15.3970000000      -10.4810000000
H                34.4350000000       19.3670000000       -8.3330000000
H                31.8020000000       20.1110000000       -8.8960000000
H                33.0410000000       18.3200000000       -6.7420000000
H                31.2840000000       18.4050000000       -7.0520000000
H                34.5350000000       17.2360000000       -8.3560000000
H                30.3130000000       17.3550000000       -9.0040000000
H                34.7440000000       15.4460000000      -10.0450000000
H                30.5160000000       15.5710000000      -10.6950000000
H                32.7340000000       14.6190000000      -11.2240000000
N                32.8240000000       21.3610000000       -6.0540000000
C                32.4770000000       22.3210000000       -4.9950000000
C                33.6390000000       22.4430000000       -4.0070000000
O                34.4310000000       23.3860000000       -4.0700000000
C                31.2150000000       21.8730000000       -4.2600000000
H                33.7970000000       21.0570000000       -6.0240000000
H                32.2810000000       23.2970000000       -5.4390000000
H                30.9800000000       22.6000000000       -3.4830000000
H                30.3920000000       21.8120000000       -4.9720000000
H                31.3930000000       20.8950000000       -3.8130000000
H                41.1867482082       28.5276809982        1.4849526739
H                36.5234965169       21.1868018491      -11.4693943403
H                33.7653690828       21.7513895204       -3.2958700545
