 438 
 
N                20.6697418426       39.2751935252       75.9822279603
C                19.6495914561       39.8195432443       75.1076900452
C                19.3165944327       41.2620472465       75.4687413462
O                18.8178249656       42.0328722245       74.6696706716
C                18.4751267186       38.8513185616       75.0849905402
C                17.1896489936       39.3714544643       74.5205472902
C                16.4473107255       40.2837619383       75.2629851822
C                16.6521539811       38.8009801105       73.3735381380
C                15.1444836175       40.5804111064       74.9189212914
C                15.3365261773       39.0740941536       73.0484882582
C                14.5814182387       39.9354000332       73.8304231084
H                20.3883213629       38.6418733605       76.7353389467
H                20.0824600641       39.8843013055       74.1054968365
H                18.7860928534       37.9565108688       74.5444459748
H                18.2803068564       38.5462237751       76.1196385497
H                16.8723781624       40.6982041170       76.1644535630
H                17.2227069166       38.0954962295       72.7933239359
H                14.5622975186       41.2580532833       75.5216956965
H                14.8706815772       38.6138318896       72.1898465983
H                13.5466242602       40.0988065130       73.5730316963
N                19.7754739347       41.6948330618       76.6538620747
C                19.8815768741       43.1284314169       76.8530424807
C                20.6560466279       43.7792307414       75.6707986711
O                20.2957148378       44.8475012252       75.2164264952
C                20.5536685839       43.4240824188       78.2051370720
C                19.5735437215       43.4571621462       79.3875310311
C                18.6248971694       44.6580884648       79.2704679717
C                17.7986958435       44.8816331539       80.5331949329
N                17.0185734074       46.1351520570       80.3963279407
H                20.0520648676       41.0620188088       77.3892663986
H                18.8866736663       43.5860742407       76.8162480714
H                21.3169661166       42.6673416948       78.3901108892
H                21.0487765009       44.3937985145       78.1414246385
H                19.0016921252       42.5313623922       79.4476679474
H                20.1492857532       43.5493406188       80.3074555994
H                19.2266611104       45.5486588260       79.0857300969
H                17.9372610812       44.5264260982       78.4363113238
H                17.1041537221       44.0567699580       80.6968538066
H                18.4390094888       44.9760540945       81.4104629566
H                16.3936237394       46.3408615274       81.2603728252
H                17.6349166556       46.9399327737       80.2569403846
H                16.3449653533       46.0785621286       79.6241797857
N                19.7285624909       43.4973470169       71.3447880237
C                18.6132927665       44.2673505458       70.8436799045
C                18.7064483432       45.6885078366       71.3993536117
O                18.4889066657       45.9140442722       72.5827520889
C                17.2939690814       43.6516263813       71.3620783643
C                17.0642024630       42.1999814372       70.9258190954
C                16.5025528414       42.0325265954       69.5084707587
C                16.9231737450       40.7084556523       68.8661521019
N                18.1973783437       40.8574414187       68.0823526205
H                19.8718811880       43.5454173140       72.3442866453
H                18.6668219312       44.2608485801       69.7525191236
H                17.3426304261       43.6744984248       72.4508597168
H                16.4619192518       44.2805190157       71.0445122555
H                18.0085755873       41.6664635767       71.0278435828
H                16.3688595683       41.7447386456       71.6323356502
H                15.4134178530       42.0720570606       69.5540800328
H                16.8233023670       42.8618432522       68.8774277889
H                17.0638870767       39.9617042064       69.6465172510
H                16.1381801467       40.3597610325       68.1965008689
H                18.0016797297       41.3767714067       67.2153894888
H                18.9180371666       41.4200598018       68.6072751843
H                18.5727718910       39.9345984554       67.8314566131
N                19.0144470347       46.6599046095       70.5326559421
C                18.8457507852       48.0533332373       70.8900419589
C                17.5288167552       48.1850901562       71.6711433936
O                16.5475153538       47.5419010951       71.3082909083
C                18.6914710761       48.8730946184       69.5586580287
O                19.2740445327       48.2317441248       68.4639384126
H                19.1371307453       46.4826603907       69.5411517924
H                19.6955662486       48.4046869812       71.4829467487
H                17.6284517855       48.9557136142       69.3185663860
H                19.0909138914       49.8792286622       69.7093493324
H                20.2301330937       48.3769965003       68.4579767387
N                17.4360661091       49.1119942691       72.6362516346
C                16.1376576925       49.3726073841       73.2605668049
C                15.0273265780       49.3683729801       72.1967835699
O                13.9959987029       48.7274209265       72.3514807199
C                16.1472583968       50.6998728275       74.0254257557
C                14.7483855165       51.2813350388       74.3125088728
C                13.8136820662       50.3158468453       75.0240023854
C                14.8919480741       52.5359922316       75.1787249243
H                18.2441790860       49.5908366002       73.0053838667
H                15.8893095923       48.5535272150       73.9471009349
H                16.6590986088       50.5548284275       74.9771381744
H                16.6979956443       51.4464610357       73.4499156745
H                14.2814318382       51.5678915441       73.3632055161
H                12.8366360670       50.7683992393       75.1828992799
H                13.6673578201       49.3936985106       74.4700674813
H                14.2053074080       50.0542214711       76.0067689336
H                13.9165454729       52.9847891621       75.3488416969
H                15.3122931350       52.2810159257       76.1483158301
H                15.5304732005       53.2757307866       74.7019853889
N                15.2625855274       50.0999489328       71.0953703043
C                14.2985413525       50.2532896051       70.0207088581
C                13.6320644694       48.9154608836       69.6587736400
O                12.4103517370       48.8163322543       69.5980763926
C                15.0116710772       50.8369395216       68.8061445847
H                16.0594849541       50.7213801096       71.0716088609
H                13.4822733946       50.9181926907       70.3367003009
H                14.3049037350       50.9443126553       67.9866473908
H                15.4041553590       51.8222179738       69.0437497329
H                15.8212696734       50.1883931118       68.4831125534
N                14.4723737907       47.9277443529       69.3105050289
C                13.9910281392       46.6807738045       68.7255334470
C                13.0632226062       45.9459010833       69.6973739941
O                11.9821025902       45.4601143428       69.3926105869
C                15.1264825263       45.6949757446       68.3236340742
C                16.4928760799       46.3348834103       68.0038983423
C                14.6324340349       44.8006771010       67.1851765788
C                16.5329342597       47.3390386666       66.8624405726
H                15.4142504617       47.9323859893       69.6865878081
H                13.3910811071       46.9492583313       67.8473770401
H                15.2963433397       45.0523694697       69.1954880782
H                16.8673277371       46.7972392801       68.9155768351
H                17.1683325067       45.5158549623       67.7552008215
H                15.3879111396       44.0676267747       66.9259473442
H                13.7243113286       44.2823938266       67.4846698342
H                14.4022046299       45.3924927651       66.3027016507
H                17.5217422216       47.7846092241       66.8061223198
H                16.3181179135       46.8593537444       65.9116034930
H                15.8002081403       48.1305124171       67.0053439596
N                13.5943679555       45.7919369941       70.9162207338
C                12.9003125902       45.0496896573       71.9452299950
C                11.6685316809       45.8138139451       72.4514734820
O                10.6732698691       45.2353149188       72.8797798260
C                13.8861766874       44.5946240443       73.0275178744
C                14.5738609602       45.7183165634       73.7961122312
C                15.9211559980       45.2482974443       74.3607834462
N                16.1478761083       45.8627477950       75.6479020327
C                17.2070080646       46.5083065768       76.0943874738
N                18.3001855496       46.7123757369       75.3751731843
N                17.1606295233       46.9462003745       77.3831869155
H                14.4449088866       46.2807241234       71.1661194653
H                12.4902876572       44.1470490198       71.4700642302
H                13.3380401874       43.9666750823       73.7285756030
H                14.6350902912       43.9805212911       72.5255202636
H                14.7253763929       46.5916097871       73.1625752655
H                13.9282301294       46.0340126168       74.6194037731
H                15.8877191594       44.1642759802       74.5101906410
H                16.7297468214       45.4962808583       73.6750582575
H                15.3440985983       45.8164548984       76.2840006338
H                18.4352706053       46.2812951605       74.4662947666
H                19.1349010964       47.0532602383       75.8250778842
H                16.2253596020       47.0143031384       77.7689294059
H                17.7882443102       47.6948545756       77.6380029955
N                11.7381279671       47.1411776237       72.3006591602
C                10.6147315049       47.9903496365       72.6287235194
C                 9.4569907562       47.6519919385       71.6692414525
O                 8.3026496940       47.4484963198       72.0506093981
C                11.0531727439       49.4548611870       72.5629509942
C                 9.9624287501       50.3926083170       73.0749977799
C                 9.5440609263       49.9382696887       74.4628558784
O                10.1917618675       50.2178887036       75.4606565034
N                 8.4236166086       49.1871943391       74.5047002817
H                12.6100053907       47.6068398236       72.0813368086
H                10.2735472623       47.7402489306       73.6432716656
H                11.9379787547       49.5635039433       73.1861832962
H                11.3088569216       49.7028650244       71.5316460417
H                10.3537523404       51.4062696277       73.1483419064
H                 9.1054029905       50.3854292902       72.4012838249
H                 8.0121820855       48.8020922739       73.6665562317
H                 8.0950233042       48.8618157151       75.3991598947
N                 9.8212211931       47.5260117979       70.3970766240
C                 8.8245626005       47.1149053285       69.4304855425
C                 8.2609273814       45.7689166271       69.8957139020
O                 7.0561734963       45.5472439695       69.9655730932
C                 9.4508579287       47.0204194654       68.0246149313
C                 8.4520910675       46.9903277080       66.8644545074
C                 8.3317892791       48.3957417479       66.1750152255
O                 8.5968028816       49.3924917355       66.8780679467
O                 7.9862819666       48.3967102978       64.9728369923
H                10.7318557093       47.8319664747       70.0717895438
H                 8.0031866991       47.8446626785       69.4061799714
H                10.0608549282       47.9208435591       67.9051608108
H                10.1120076044       46.1527342770       67.9903441985
H                 8.7492028133       46.2771810572       66.0962718425
H                 7.4502989102       46.7207754730       67.2064781934
N                 9.1881863784       44.8527753281       70.1845292586
C                 8.8769786724       43.4297314907       70.2142758963
C                 7.8063705872       43.1285450088       71.2607578273
O                 6.8975264503       42.3426989981       71.0346870120
C                10.1638821474       42.6441869962       70.4312277417
C                10.0921453313       41.2343448803       69.8747960354
C                11.5182685550       40.6469661445       69.6176563880
O                11.5299668629       39.5253260624       69.0531939449
O                12.5103095304       41.2902901204       69.9741594788
H                10.1613183292       45.0954631685       70.0163050080
H                 8.4382364581       43.1542144364       69.2421555106
H                10.9661873500       43.1696784444       69.9045518883
H                10.4176094097       42.6387950573       71.4933137711
H                 9.5423709500       40.5716874302       70.5446484976
H                 9.5742494783       41.2317875574       68.9127056975
N                 8.0086304034       43.7937896506       72.4090758170
C                 7.0685860665       43.9877712471       73.4948798312
C                 5.6759347184       44.3770670891       73.0202957348
O                 4.6839242217       43.7127320418       73.2987188402
C                 7.6064874966       45.1177682008       74.3883402070
C                 6.5088905344       45.7817257194       75.2203770052
C                 8.6894437988       44.5206659956       75.2771070150
H                 8.8317573190       44.3859743712       72.4504705637
H                 6.9659208748       43.0591331300       74.0720406312
H                 8.0575817561       45.8765455612       73.7419453056
H                 6.9631062262       46.4665801523       75.9326326780
H                 5.8211871544       46.3552970452       74.6092411791
H                 5.9485304415       45.0310661646       75.7728485807
H                 9.2276523686       45.2914419861       75.8191669350
H                 8.2624080763       43.8345748270       76.0044233435
H                 9.4185037601       43.9843269603       74.6758717433
N                 5.6365587896       45.5498447376       72.3732708502
C                 4.4034352152       46.1635814425       71.9137156292
C                 3.6640943705       45.2079340307       70.9629541116
O                 2.4618103130       45.0090025759       71.0922025339
C                 4.7139436857       47.5079269604       71.2778037839
H                 6.4961179667       46.0149423921       72.1151332481
H                 3.7365686020       46.3013934491       72.7767038492
H                 3.8006178896       47.9772990085       70.9235967195
H                 5.1885687458       48.1596523860       72.0060362721
H                 5.3915629575       47.3756459229       70.4371126122
N                 4.4501665442       44.6075545449       70.0626462565
C                 3.9784966707       43.7090229598       69.0354768592
C                 3.4212064636       42.3652485706       69.5204381911
O                 2.6454283668       41.7548959946       68.7924138697
H                 5.4259449695       44.8735817077       70.0293210709
H                 3.1772963065       44.1825360080       68.4560830583
H                 4.8088411447       43.4995461224       68.3594968984
N                 3.8244087160       41.9401918660       70.7305842241
C                 3.3767641315       40.6776025213       71.3024530752
C                 2.2524481998       40.8685373446       72.3118975271
O                 1.3373318364       40.0547226641       72.3740465282
C                 4.5067268661       39.8270059749       71.9211073028
C                 4.0854781296       38.3551203855       72.0059165832
C                 4.8988384259       40.3154259926       73.3069853590
C                 4.1010795257       37.6409956659       70.6640722615
H                 4.5933500578       42.4172891089       71.1811365216
H                 2.9381182776       40.1244343502       70.4627820912
H                 5.3766183599       39.9256943966       71.2619620102
H                 4.7921424715       37.8531419849       72.6682372008
H                 3.0911328774       38.3043929111       72.4501971137
H                 5.7940857420       39.7890898025       73.6316958892
H                 5.1206021326       41.3789190698       73.3025276407
H                 4.1028951200       40.1267160234       74.0236138514
H                 3.7950964245       36.6073116498       70.7858425763
H                 3.4280462567       38.1272667926       69.9620395704
H                 5.1056917155       37.6662602451       70.2471007546
N                 2.3528273898       41.9413446722       73.1037528268
C                 1.2207156150       42.3254663381       73.9179216117
C                 0.0423668145       42.6293807232       72.9885708960
O                -1.1047455105       42.3704065188       73.3161861192
C                 1.4976218608       43.5180750399       74.8370201136
C                 1.9374781536       43.1389538829       76.2609748088
C                 0.8295160993       42.5691506756       77.1608972274
N                 1.2453432719       42.6873994820       78.5546068791
C                 0.5548512728       42.3239816484       79.6323121563
N                -0.6787688501       41.8504690246       79.5647983045
N                 1.1014445952       42.4964841194       80.8449432105
H                 3.1317603746       42.5817732318       73.0243300956
H                 0.9078021932       41.4539535809       74.5091924692
H                 2.2806898476       44.1217129921       74.3756325271
H                 0.5940508604       44.1279276523       74.8947534615
H                 2.7615835596       42.4286358802       76.1987515255
H                 2.3071043442       44.0560449361       76.7231967095
H                -0.0975018885       43.1308359850       77.0101119488
H                 0.6439197898       41.5150553467       76.9341256329
H                 2.1874114805       43.0215449648       78.7036332068
H                -1.2044170570       41.7423327200       78.7032044688
H                -1.1455696373       41.5628237214       80.4072805535
H                 2.0558356016       42.8027215066       80.9654332357
H                 0.6135731733       42.1873636512       81.6678822195
N                 0.3502305577       43.1310695493       71.7807683932
C                -0.7421570050       43.4550338275       70.8772258494
C                -1.6540639347       42.2174911568       70.7113664081
O                -2.8422191099       42.2047772999       70.9968950250
C                -0.1906870951       43.9042586818       69.5201543928
H                 1.2270539679       43.6117444793       71.6070361150
H                -1.3688971121       44.2472683494       71.3109501950
H                -1.0101829448       44.0933498851       68.8334301662
H                 0.3779516296       44.8209879503       69.6552268872
H                 0.4694571815       43.1528961736       69.0951951291
N                 5.3334721154       38.7098929494       78.8288396913
C                 6.5411717831       38.2193690812       78.1808593291
C                 7.7445602947       38.2993648385       79.1365370730
O                 8.1187862809       39.3442965820       79.6662885977
C                 6.7292616342       39.1896273204       77.0242742083
C                 6.2478036447       40.5143770520       77.6045527263
C                 5.0924044681       40.1113642399       78.5391610432
H                 6.4009542792       37.1808752574       77.8785197848
H                 7.7646054887       39.2180638233       76.6998384425
H                 6.0934797938       38.8891229859       76.1903103955
H                 7.0338285366       40.9833250021       78.1930489181
H                 5.9237091931       41.2082539971       76.8334400810
H                 5.1092170652       40.7103824741       79.4516957354
H                 4.1252170817       40.2230347509       78.0402784144
N                12.5079632871       33.9424418382       74.9801173634
C                11.2940224549       34.7212372133       75.1306643882
C                10.1711572445       33.7213452279       75.4319943420
O                 9.9948196258       32.7695577080       74.6841197780
C                11.0053534822       35.4656535467       73.8126190554
C                12.0150508556       36.5595200697       73.4774302852
C                11.6516933039       37.2622336923       72.1697779540
C                11.9466146866       36.3690763524       70.9588306124
N                11.3579930340       36.8896827263       69.6851679449
H                12.4905775256       33.2447332824       74.2488777823
H                11.4269929198       35.4146486061       75.9626793791
H                11.0046247460       34.7072840121       73.0313034726
H                10.0127052386       35.9099993261       73.8902232924
H                12.0208830357       37.2980341764       74.2811321642
H                13.0243589389       36.1498622616       73.4195693701
H                10.5974940714       37.5290306722       72.1979229179
H                12.2217506565       38.1880404553       72.0822840221
H                13.0277789347       36.3036058506       70.8320770189
H                11.5407266776       35.3738779402       71.1321207864
H                11.7273542034       36.3985282260       68.8633532536
H                10.3315527689       36.8583897627       69.7093717003
H                11.5836011876       37.9201678157       69.5348778295
N                11.0632484142       45.4949490748       83.2084223071
C                11.9679493977       46.5024604760       82.7009873457
C                11.2565478009       47.6748734942       81.9882763044
O                10.0623651289       47.7476433335       81.7372391281
C                12.9082174289       45.8487061513       81.6941054721
C                14.1955228333       46.6306007495       81.3651794227
O                15.1400459516       46.5235196018       82.1974173306
O                14.2983839578       47.2227716422       80.2729700229
H                10.8880204434       44.7335983958       82.5596761001
H                12.5219686529       46.9351517080       83.5486275908
H                13.2331592774       44.8904718764       82.1056201994
H                12.3552607045       45.6656969870       80.7708919749
N                12.1657829576       48.6021217501       81.6337760629
C                11.8632851946       49.8289557153       80.9286835488
C                11.1285774818       49.3906937937       79.6640820331
O                10.0297710339       49.8453109458       79.3785256615
C                13.1321864989       50.6624931263       80.6708515671
C                14.2414986844       50.4897357192       81.7267586839
C                13.8864816708       50.3256727972       83.2701902522
O                12.9306359237       50.9570467627       83.7594519179
O                14.6596537239       49.5662711045       83.8937757980
H                13.0750563830       48.5571556566       82.0621445716
H                11.1511541128       50.4200767944       81.5252883815
H                13.5469163392       50.3741346665       79.7031075679
H                12.8241714476       51.7062839344       80.6228573045
H                14.8391648493       49.6070953108       81.4881086352
H                14.9009753323       51.3586446003       81.6788466607
N                11.7761078148       48.4934726503       78.8893994501
C                10.9868066592       47.7573580793       77.9021649100
C                10.0874315011       46.7548703877       78.6383262684
O                10.3393012428       46.2960925559       79.7357067910
C                11.8508379895       47.0235469465       76.8789181269
C                12.8006737046       45.9752448901       77.5695837178
O                12.2884089050       45.0133120610       78.1670372983
O                14.0189614232       46.1921280221       77.4143373236
H                12.5637568282       48.0017753821       79.3079436027
H                10.3654157572       48.5099570235       77.3992391513
H                11.1979923166       46.4971319437       76.1793692178
H                12.4575292830       47.7516031987       76.3388787410
N                 8.9870934430       46.3628088589       77.9425530889
C                 7.9851345776       45.5995146311       78.6514545981
C                 8.3885068765       44.2066877889       79.1134642439
O                 7.5559292714       43.5686719139       79.7608396672
H                 8.6667271384       46.9568404340       77.1940207480
H                 7.6868232108       46.1321324902       79.5660135364
H                 7.1068140761       45.4868705610       78.0134811068
N                 9.5464265705       43.6524130518       78.7572320937
C                 9.8795844400       42.3512427396       79.3144097012
C                10.2996720948       42.4237517127       80.7841867664
O                10.9661106630       43.3562992108       81.2119754781
C                11.1310444962       41.8159517817       78.6245682653
C                11.0170244903       41.5966934721       77.1438367786
C                 9.9198175942       40.9556461718       76.5965911490
C                12.0616266881       41.9823271662       76.3142133683
C                 9.8864242480       40.6545175313       75.2464477099
C                12.0267311951       41.6821396510       74.9700171266
C                10.9537448779       40.9888138749       74.4368403833
H                10.3335231509       44.2288641318       78.4742272238
H                 9.0128492337       41.6938972552       79.2064969426
H                11.9295029011       42.5358922329       78.8124130731
H                11.4085855387       40.8742437366       79.1096878054
H                 9.1007959398       40.6864336650       77.2410636235
H                12.8824924570       42.5448313549       76.7354024952
H                 9.0197168044       40.1783075254       74.8186146939
H                12.8162013877       42.0160665248       74.3168418151
H                10.9343286969       40.7607315425       73.3808926341
N                13.0610153416       40.4464645617       82.8773505816
C                14.1914980159       39.5600740693       82.6883083617
C                14.4159507513       38.6852543996       83.9542068022
O                14.2403228356       39.1230113151       85.0965021768
C                15.4433743889       40.3838431318       82.3948621288
C                15.4228833219       41.1158436560       81.0762915461
C                14.4912099897       42.1091939900       80.7667056076
C                16.4082274978       40.8282857902       80.1392111657
C                14.5327761975       42.8069214189       79.5707633585
C                16.4436917921       41.4985186233       78.9321991821
C                15.5152107466       42.4945210059       78.6331560766
O                15.5686030922       43.1803631729       77.4595893801
H                13.2098294454       41.2784037324       83.4265523124
H                13.9459917501       38.8891556724       81.8597869148
H                15.5588831406       41.1036933947       83.2121291577
H                16.3063432734       39.7155512258       82.4055520987
H                13.7130047105       42.3763263147       81.4659849514
H                17.1544598229       40.0735754829       80.3417986229
H                13.8249389456       43.5961369814       79.3644402483
H                17.2168101910       41.2519437261       78.2184780136
H                16.2702816827       42.8120788832       76.8992103888
N                 9.3645395434       32.9486428786       70.1132032908
C                 8.6191719226       33.5071884693       71.2977376711
C                 7.6285256045       32.4814197868       71.9644001573
O                 6.4322570399       32.5712958261       71.7770668284
C                 7.7753133701       34.7201290375       70.8558199614
C                 7.7224646671       35.7646189385       71.9533230280
C                 7.2837170562       35.4437908596       73.2296842166
C                 8.1927243147       37.0543041308       71.7084473914
C                 7.3759392209       36.3949749629       74.2265405063
C                 8.2881278099       38.0110983977       72.7041755986
C                 7.8888098744       37.6595895004       73.9713483553
H                 9.9827325019       33.6657426725       69.7053750728
H                 9.9286086598       32.1277402414       70.3886039513
H                 8.6864150984       32.6591479882       69.3860047315
H                 9.3437107241       33.8062564902       72.0600994324
H                 8.1738353885       35.1811255982       69.9543197077
H                 6.7571390455       34.3805192168       70.6486964355
H                 6.8897588165       34.4672267545       73.4522109791
H                 8.4680742317       37.3395927018       70.7017485210
H                 7.0899357684       36.1592914428       75.2416857132
H                 8.6497996579       39.0056770367       72.4879587528
H                 7.9697746154       38.3631331856       74.7820428220
H                21.2602237807       38.8007743278       75.4961646868
H                21.4537459749       43.3185083175       75.2816835211
H                19.6070247554       42.6280702025       71.1458247137
H                -1.2776571383       41.3636185170       70.3518953541
H                 4.7166962954       38.0548088025       78.8501081711
H                 8.2657425134       37.4741984334       79.3544120345
H                13.1953846874       34.4913278222       74.7899174821
H                 9.5893724085       33.8499128511       76.2351112518
H                11.4068388157       45.1322628996       83.9570239197
H                10.0293380940       41.6988868893       81.4178195589
H                12.7709975173       40.7383807098       82.0769290526
H                14.7122077881       37.7348908605       83.8591230928
H                 7.9833062220       31.7498073191       72.5465289322
