 357 
 
N                62.4413043953        6.6411334611       21.3893510979
C                61.8958879399        5.2897277818       21.3601053629
C                62.9780050247        4.2149297995       21.3467216006
O                62.7010736840        3.0148380426       21.4279997533
C                60.9554718447        5.0607873266       20.1790278324
H                62.8071517307        6.9010341730       20.4749588595
H                61.3165249207        5.1639480676       22.2858879055
H                60.5570766161        4.0484427451       20.1961821936
H                60.1083176628        5.7397051242       20.2721855032
H                61.4696981771        5.2238447504       19.2291199023
N                64.8128745180        2.8100843438       23.3194767012
C                64.7269657896        2.8901076916       24.7577617995
C                64.8114977668        1.5714825642       25.5162567026
O                65.0802561768        1.5816083085       26.7087070390
C                63.3760246076        3.4980159260       25.1763533106
C                63.2014644271        4.9631233801       24.8263965435
C                61.7711545196        5.4824819456       25.2083245630
O                60.8682303924        4.6344712372       25.3567501205
O                61.6689050802        6.7170513740       25.3393587968
H                63.9411187561        2.6654745799       22.8232886586
H                65.5519604984        3.5241226401       25.1050325600
H                62.5690486951        2.9318620349       24.6951539425
H                63.2584584860        3.3903317303       26.2561845391
H                63.9336120742        5.5934922622       25.3320935983
H                63.2859431293        5.1212435210       23.7496911113
N                64.4779582279        0.4582622756       24.8505722596
C                64.1064478727       -0.7346491674       25.5717563775
C                65.1046947409       -1.8944291689       25.4793639915
O                65.8875225926       -2.0851530396       24.5652922189
C                62.7579234171       -1.2751887012       25.0898856612
C                61.5691091762       -0.5373907310       25.6068129544
C                61.5254000552        0.6738808903       26.2370365534
C                60.2259456562       -1.0110119074       25.5439181127
N                60.2352122697        0.9755314301       26.5969252058
C                59.4180775417       -0.0234065687       26.1520781438
C                59.6343005136       -2.1715664245       25.0345015900
C                58.0446093212       -0.1814329726       26.2685384376
C                58.2677229650       -2.3197872365       25.1491419535
C                57.4863505760       -1.3412678276       25.7570616373
H                64.2998375710        0.5319734669       23.8605824108
H                64.0423668678       -0.4285042593       26.6237334526
H                62.7779562653       -1.2658890916       23.9942261847
H                62.6651630774       -2.3325589514       25.3545964241
H                62.3212991699        1.3433613559       26.4898120159
H                59.9402633302        1.8976825518       26.8734259143
H                60.2390127479       -2.9166568370       24.5348897571
H                57.4367347514        0.5815574372       26.7242627195
H                57.7901023397       -3.1976099791       24.7333945190
H                56.4188880738       -1.4810490927       25.8154933730
N                64.9896619354       -2.6819869409       26.5629424451
C                65.4717395171       -4.0290734309       26.7447154691
C                64.5169071367       -4.6460194546       27.7803292961
O                63.8434670227       -3.9070199034       28.4986340986
C                66.9219486474       -4.0238728324       27.2641112854
O                67.2744884718       -5.3050721575       27.7068508730
H                64.2910090932       -2.4408609003       27.2633251375
H                65.4160510255       -4.5762718068       25.7967313696
H                67.5713235857       -3.6823837242       26.4484299043
H                66.9751107856       -3.2942293754       28.0849441573
H                68.2278866682       -5.3148924054       27.8716582196
N                64.4688480462       -5.9755960261       27.8236161279
C                63.5044896885       -6.6921505996       28.6519810208
C                63.8306110750       -8.1803909226       28.5284761177
O                63.3102350267       -8.9060530392       27.6861167204
C                62.0594683924       -6.4140708805       28.2111905717
C                61.0667774839       -6.9945552380       29.1778952209
C                60.9385393823       -6.4644598459       30.4582524028
C                60.2473460663       -8.0530459830       28.8104082139
C                60.0083939005       -6.9762259148       31.3443698363
C                59.3141477956       -8.5657620117       29.6944482595
C                59.1913819317       -8.0291193639       30.9652067166
H                65.0550281422       -6.5367182188       27.2008529935
H                63.6212018269       -6.3510086632       29.6880198143
H                61.9295100916       -5.3301264999       28.1493193270
H                61.9155467523       -6.8379975703       27.2151330206
H                61.5523489563       -5.6221204180       30.7446211334
H                60.3370741983       -8.4585914277       27.8143334384
H                59.9061310360       -6.5368518268       32.3261919035
H                58.6715288193       -9.3749220080       29.3825988552
H                58.4567532691       -8.4182380863       31.6528906180
N                64.8001331441       -8.5852235621       29.3765168202
C                65.1426267775       -9.9797993491       29.6274006755
C                64.9642637003      -10.7253811170       28.3035044162
O                64.2334522066      -11.6737396661       28.1156798459
C                64.3207023632      -10.5404013178       30.7983594741
C                64.2736603584       -9.5069939564       31.8764734525
C                63.1779044090       -8.7970350332       32.2699245451
C                65.3989307071       -8.9200926407       32.5394746795
N                63.5403195553       -7.8185289134       33.1552743041
C                64.8946286947       -7.8513585867       33.3214772242
C                66.7738860543       -9.1712409124       32.5363864288
C                65.7329535609       -7.0355314997       34.0709794001
C                67.5988013203       -8.3535299209       33.2738735664
C                67.0870869691       -7.2957875302       34.0282346600
H                65.1196071894       -7.9375624525       30.0805390480
H                66.2102752440       -9.9963627946       29.8755704991
H                63.3116167839      -10.7762372524       30.4556763231
H                64.7919639357      -11.4608320053       31.1388671379
H                62.1558875439       -8.9134749453       31.9638749894
H                62.9148981791       -7.1237119706       33.5270044549
H                67.1814957608       -9.9886825017       31.9634241080
H                65.3390456153       -6.2185344366       34.6565732413
H                68.6663171077       -8.5154928251       33.2624852109
H                67.7635842461       -6.6616036185       34.5791982103
N                65.8410060314      -10.2453007564       27.3869002387
C                65.5426552240      -10.2357165381       25.9758891475
C                65.5190685723       -8.7701397590       25.5509650762
O                65.8503121577       -7.8733089924       26.3425306458
H                66.2928012131       -9.3618146265       27.6276709230
H                66.3419675302      -10.7673359740       25.4535469502
H                64.5825251604      -10.7184020364       25.7766290700
N                65.2599549200       -8.5336913489       24.2342102815
C                65.0944293828       -7.1523041696       23.7832377958
C                63.8088240219       -7.0794425106       22.9890646077
O                63.5845796981       -7.8254309507       22.0165884357
C                66.3797514420       -6.6988507807       23.0492800015
C                66.3657185395       -5.1890295134       22.7967255994
C                66.5963152201       -7.4805298483       21.7576379292
C                67.7645839058       -4.6225814036       22.5635550996
H                64.7351533418       -9.2141427947       23.7003066212
H                64.9920181056       -6.5175017025       24.6707718115
H                67.1975766435       -6.9070399684       23.7521935057
H                65.7151455285       -4.9481019737       21.9485117517
H                65.9278068173       -4.6655062559       23.6517739425
H                67.4718613318       -7.0907343656       21.2452989417
H                66.6577837796       -8.5396455178       21.9876884245
H                65.7402100674       -7.3402021322       21.1008735490
H                67.7272950179       -3.5405750438       22.6637073917
H                68.4603254982       -4.9987672389       23.3096573350
H                68.1340673106       -4.8586111580       21.5698200565
N                62.8201592163       -6.3138608679       23.5906243630
C                61.6859452238       -5.8475259974       22.8189218005
C                61.8604815040       -4.3389899541       22.6385128617
O                62.7447426175       -3.7460560956       23.2745615657
C                60.3337920089       -6.1427004818       23.5103300861
C                60.3990479778       -7.2879221902       24.5173144716
C                60.7807879758       -8.6263463492       23.8831653277
C                61.2265843606       -9.6300473495       24.9414717072
N                61.6748135198      -10.8943029169       24.2945033832
H                63.1637696404       -5.5254801917       24.1314574674
H                61.7008532124       -6.3199071439       21.8296815074
H                59.9936042915       -5.2360501094       24.0221384359
H                59.6110015947       -6.3689737178       22.7241572018
H                61.1427581370       -7.0096521922       25.2642528864
H                59.4232611295       -7.3604336640       24.9997411980
H                59.9316179345       -9.0177177669       23.3181568281
H                61.5870235538       -8.4496462605       23.1699129455
H                62.0570370557       -9.2192573979       25.5222153891
H                60.4057803614       -9.8626027239       25.6207987783
H                62.0670386234      -11.5399901393       24.9970506185
H                60.8864594237      -11.3652221486       23.7994022040
H                62.3595283617      -10.6799345336       23.5563881296
N                60.9752844113       -3.7036418426       21.8363311636
C                61.1689855412       -2.2926342217       21.5704788515
C                59.9332629712       -1.4243020747       21.6633789995
O                58.8526533352       -1.5995250031       21.0253639014
C                61.8516970734       -2.0326463945       20.2043189408
C                63.2810894355       -2.4361763810       20.1269259185
C                63.6967039406       -3.5034723486       19.3463309893
C                64.2361176814       -1.6802067175       20.8065172072
C                65.0392799592       -3.7920843748       19.2084225122
C                65.5799177566       -1.9715188524       20.6916750384
C                65.9885483449       -3.0153642130       19.8715610735
O                67.3059268136       -3.2884171101       19.6643849268
H                60.4507736454       -4.2622419547       21.1762568671
H                61.8584552078       -1.9599942935       22.3534426606
H                61.2497477051       -2.5304425350       19.4438653395
H                61.8060321811       -0.9585105782       20.0126609878
H                62.9531123617       -4.0945345775       18.8258407163
H                63.9092291984       -0.8460906975       21.4148832082
H                65.3599555382       -4.5922044843       18.5628968455
H                66.2960590576       -1.3664474535       21.2293629342
H                67.8269969584       -2.6505737347       20.1715595686
N                60.1403509502       -0.3273838478       22.4922789659
C                59.4736468860        0.9593933550       22.4121652623
C                59.4789219033        1.6766529864       21.0697401849
O                58.5513224831        2.5163324123       20.7640993560
H                61.1067377264       -0.2253960447       22.7634174002
H                58.4261311473        0.8460795538       22.7138975373
H                59.9573669914        1.5865163386       23.1737763503
N                60.3544731483        1.1928412228       20.0853670588
C                59.9971559873        1.4469133781       18.6914813377
C                58.5194822427        1.2508666253       18.3967779938
O                57.9265354750        2.0098992956       17.5859423305
C                60.9128780604        0.5704770994       17.8287820521
C                61.2821952958        1.1125882840       16.4472316893
C                62.4741765519        0.3174770891       15.9132040256
C                60.1110845564        1.0449028682       15.4746413548
H                60.5013158515        0.1966171375       20.2374582813
H                60.2075651986        2.5092882177       18.4748117819
H                61.8399313171        0.4775231202       18.4018567315
H                60.4664136306       -0.4270689401       17.7301491342
H                61.5690301003        2.1656193223       16.5707901723
H                62.7300491317        0.6574316663       14.9154813098
H                63.3257608304        0.4409566733       16.5758455663
H                62.2285246825       -0.7424595757       15.8793718429
H                60.4190951002        1.3785529610       14.4878922661
H                59.7140660415        0.0308168052       15.4237105438
H                59.2976419648        1.6803501515       15.8175404070
N                57.8693817832        0.2197251647       18.9905019267
C                56.3998012901        0.1626994709       18.9475202962
C                55.7403734590        1.4820098296       19.2696913596
O                55.0703835079        2.1625559177       18.3987184348
C                55.9014430364       -0.9097952329       19.9093935035
C                54.4026456314       -0.8859060353       19.9918657139
C                53.6043133983       -0.9171432979       18.8531661744
C                53.7764716901       -0.9036998814       21.2354940176
C                52.2243598037       -0.9433294409       18.9507067196
C                52.3988731780       -0.9415527330       21.3384465567
C                51.6160259160       -0.9577316305       20.1984520277
H                58.2792019418       -0.2263702504       19.8135501560
H                56.1240447137       -0.1068588909       17.9077059285
H                56.2477808170       -1.9040112927       19.5871704862
H                56.3431577355       -0.7230116966       20.8927431435
H                54.0622531434       -0.9289631681       17.8667624295
H                54.3967967330       -0.8892910936       22.1190576299
H                51.6387847647       -0.9797546216       18.0394124610
H                51.9422069726       -0.9716207691       22.3144063048
H                50.5410658574       -1.0052922929       20.2710973433
N                59.0008243388       -5.8898182048       16.3210975521
C                59.8442376074       -5.3821398958       17.3678560360
C                59.4975486135       -5.8929441349       18.7585282513
O                60.3239332788       -5.7909974998       19.6704024294
C                59.7933734232       -3.8498150244       17.4051524202
C                60.4645072606       -3.2628292485       16.1848826056
O                61.6805686008       -3.2604413186       16.0355643865
N                59.6186302255       -2.8115983271       15.2443006692
H                58.1940358145       -5.3219566535       16.0943309708
H                60.8791329082       -5.6937461489       17.1598879273
H                58.7554401872       -3.5233053958       17.4854017644
H                60.3299269188       -3.5095188119       18.2918535272
H                59.9828201346       -2.3657783796       14.4187490164
H                58.6245687253       -2.8029827734       15.4199222237
N                58.3062211492       -6.4905865070       18.8988115285
C                57.8789495114       -7.0469260946       20.1630868740
C                57.4685961835       -8.5003784678       19.9577709255
O                58.0221185387       -9.4025860703       20.5744143006
C                56.7460065422       -6.2419810763       20.8287907615
C                57.2695378869       -4.8576628619       21.2279663158
C                56.1975094552       -6.9979770861       22.0344067753
C                56.2461099862       -3.9637872896       21.9195741571
H                57.5890631813       -6.3527118584       18.1956894778
H                58.7609307675       -7.0528279658       20.8150281558
H                55.9578786749       -6.1154365576       20.0778577915
H                58.1375220904       -4.9625109572       21.8869450547
H                57.6286249487       -4.3335169778       20.3326130118
H                55.3344133986       -6.4758128627       22.4323824418
H                55.8972910920       -7.9990850689       21.7428508977
H                56.9609543194       -7.0603728818       22.8043909235
H                56.6970740831       -2.9868329640       22.0861255734
H                55.3698135044       -3.8061568972       21.2935283852
H                55.9408799035       -4.3748067247       22.8765685627
N                60.2643682038      -11.0155393094       18.4096850309
C                61.2647410278      -11.2321653000       19.4513291740
C                60.7720669492      -12.0698997935       20.6305611096
O                61.5164193070      -12.8883256427       21.1488377513
C                61.6580167989       -9.8176791416       19.8817724919
C                61.4963659984       -9.0301869577       18.5875378954
C                60.2184253212       -9.6223941109       17.9973849354
H                62.1203481409      -11.7665628758       19.0177420614
H                60.9490833965       -9.4324223317       20.6156218810
H                62.6628285235       -9.7439870519       20.2873542582
H                61.4131108926       -7.9575958789       18.7515865625
H                62.3343235885       -9.2058379020       17.9135201791
H                59.3396719084       -9.1172734480       18.4098914057
H                60.1835345227       -9.5100437493       16.9151712387
N                59.5648234423      -11.7746628355       21.1334118650
C                59.0009339746      -12.6221652598       22.1697817867
C                59.0041798328      -14.0880722052       21.7413048234
O                59.6387931928      -14.9281017732       22.3677251919
C                57.5730344777      -12.2287388261       22.5459487470
C                57.4478963891      -10.9301564418       23.3522564043
C                55.9828693919      -10.4999504457       23.3668154788
C                57.9276241423      -11.1030865808       24.7919850685
H                58.9403872797      -11.1207561331       20.6737065856
H                59.6574067781      -12.5998406812       23.0492845069
H                57.0081964972      -12.1314744201       21.6189115718
H                57.1373094188      -13.0478296286       23.1220134006
H                58.0211752705      -10.1539769940       22.8398570864
H                55.8618957532       -9.5780482911       23.9285197721
H                55.6229736978      -10.3328452621       22.3539918537
H                55.3660648480      -11.2713724008       23.8220810841
H                58.0179553002      -10.1325586962       25.2706105792
H                57.2006788188      -11.6907299944       25.3472154392
H                58.8772867138      -11.6242443086       24.8424406417
N                62.1038682783      -16.2293321560       21.7032675973
C                62.8433173320      -16.5145129182       22.9091634035
C                62.1010506558      -17.4115779616       23.9030592638
O                62.6914712641      -17.8396425412       24.8859132935
C                63.2473556046      -15.2221369006       23.6318220274
C                64.2295541514      -14.4029817607       22.7957371990
C                64.8757335955      -13.2904376246       23.6250633563
C                65.7263437222      -12.3540109349       22.7725361728
N                66.9467001248      -13.0563661858       22.2871301978
H                61.2506795425      -15.6884841949       21.8010625416
H                63.7388397275      -17.0703953931       22.6062953984
H                62.3384120344      -14.6517647164       23.8233663605
H                63.6965908572      -15.5116141580       24.5827920868
H                64.9819277908      -15.0926348317       22.4122831632
H                63.6851909469      -13.9814358777       21.9499581482
H                64.0886269886      -12.7086077431       24.0978137809
H                65.4748742433      -13.7251105323       24.4263759337
H                65.1541423900      -12.0135028755       21.9078909244
H                66.0420203641      -11.4893310991       23.3595182571
H                67.5335116451      -12.4261460755       21.7225257989
H                67.4983309124      -13.3994315309       23.0886166381
H                66.6724738794      -13.8646708619       21.7082846293
N                74.3608585041       -4.6819979159       21.2511608857
C                73.1209293788       -3.9191120151       21.2491285444
C                72.7735468635       -3.4490922589       22.6760039811
O                71.6904693930       -3.6468244295       23.2027371808
C                72.0138741634       -4.8078863978       20.6672274105
C                71.7480907775       -6.0360023904       21.5429945797
C                70.7855141420       -7.0405680711       20.9125716200
C                70.6757542215       -8.2399908247       21.8506031637
N                69.6689788738       -9.2272962204       21.3767458278
H                74.2694378807       -5.6853575248       21.3355033528
H                73.2975932489       -3.0345495976       20.6235267458
H                71.1149860180       -4.1956980429       20.6029783644
H                72.3141188187       -5.1122403549       19.6631773492
H                72.6889213699       -6.5487325272       21.7597923850
H                71.3389940896       -5.6846223574       22.4885568631
H                69.8171472453       -6.5577847473       20.7850301868
H                71.1682665280       -7.3434422963       19.9372338219
H                71.6479879412       -8.7307087300       21.9236998614
H                70.3827829269       -7.8915023761       22.8416299692
H                69.6613431701      -10.0426233724       22.0064376879
H                68.7268768620       -8.7976879480       21.3778407247
H                69.9009821337       -9.5350073399       20.4209792656
N                60.7092786962       -4.4943691142       39.9179854381
C                59.3147029092       -4.1518754808       39.6671015828
C                58.5691211413       -4.3302385580       40.9909978421
O                57.6207625922       -5.0610500517       41.1788224124
C                58.7541009405       -4.9737998951       38.4961427842
C                59.7875083019       -5.0208418999       37.4180288058
C                60.4974672251       -6.1165978493       37.0245777132
C                60.3744096176       -3.8955715512       36.7550275788
N                61.4759733449       -5.7541827030       36.1392279542
C                61.4431436716       -4.3998735636       35.9730250341
C                60.1232613459       -2.5206162040       36.7581158295
C                62.2589707587       -3.5615486974       35.2235228582
C                60.9409723374       -1.6957009380       36.0206286919
C                61.9987147281       -2.2074152892       35.2662675983
H                61.3569398058       -4.1748950689       39.2139632103
H                59.2981394637       -3.0842270143       39.4189317592
H                58.5182650059       -5.9828854744       38.8388259352
H                57.8336702530       -4.5025383226       38.1556351204
H                60.3810273130       -7.1386147144       37.3306272689
H                62.1707902877       -6.3796040792       35.7674978034
H                59.3058197566       -2.1130064975       37.3310781503
H                63.0759678217       -3.9554566430       34.6379290170
H                60.7790094332       -0.6281851506       36.0320170474
H                62.6328986398       -1.5309180122       34.7153040480
H                61.7931684393        7.2217811486       21.6190640613
H                63.9404906336        4.4753715509       21.2706193875
H                65.1562863837        3.5764919067       22.9959218558
H                55.8120210430        1.8650910043       20.1906231906
