 128 
 
N                24.4731003949       33.0989006043       30.8899680414
C                25.0340809609       32.5822547840       32.1377538703
C                25.3445836635       33.6655036441       33.0938176965
O                25.8625123715       34.6396220971       32.7553435049
C                26.2905677141       31.7273205539       31.9284186206
O                25.9711038518       30.3518732133       31.6533601271
H                24.7500323216       32.4333336828       30.1428465289
H                23.4568821329       33.1316645359       31.0278846820
H                24.8188887462       34.0701407510       30.7726298928
H                24.2816190303       32.0135952268       32.5705942565
H                26.7350814767       32.0368273215       30.9891488467
H                27.0329816553       31.7568275687       32.7482245304
H                26.7622128297       29.8047785239       31.4880696511
N                25.0290857632       33.3807437848       34.4016897900
C                25.4657574422       34.2860990285       35.4831396639
C                26.1966623752       33.4424307450       36.5602764683
O                25.7765429780       32.4231822395       36.8588942843
C                24.2596946666       35.0492859796       36.1301426521
C                23.1182325818       34.0945630888       36.3765506963
C                24.6291887610       35.7597433349       37.4395588170
H                24.4491510761       32.6238435997       34.7426317404
H                26.2151005030       35.0277264614       35.2150805804
H                23.8814882839       35.7971380235       35.4329334280
H                22.2893532500       34.6779455757       36.7930956641
H                22.8732710311       33.6477022905       35.4155951308
H                23.4922602946       33.3399278480       37.0721505358
H                23.7194021841       36.2818233782       37.8191452230
H                24.9987152098       34.9637784572       38.1175561867
H                25.4319214714       36.4637901260       37.1637299267
N                27.2833463912       34.0908701937       37.1310815677
C                28.0827785474       33.3943739274       38.1012778733
C                27.8595631959       34.1062945068       39.4288346167
O                27.0254249334       34.8808952163       39.6358114823
C                29.5437159905       33.3277620314       37.6222232230
S                30.5780934595       34.6917522527       37.7101476594
H                27.7247186438       35.0243921382       36.8813868290
H                27.7551752001       32.3497244320       38.2272592003
H                30.0201191849       32.5490512741       38.2093793108
H                29.5283736835       33.0827258551       36.5619414195
H                31.7686748397       34.5448626018       37.6794979004
N                29.1440308097       39.9859218980       37.6016173436
C                29.2125892275       38.9953800257       36.5568225513
C                28.8822519638       39.6636807066       35.2691110000
O                27.8251979300       40.2016199187       35.1678161308
C                28.2731534059       37.8023274037       36.7792703061
S                28.0052237901       36.5481663175       35.3332288150
H                28.3942896839       39.7768461941       38.2542099909
H                30.1385995937       38.4630013383       36.5444175242
H                28.6835915706       37.1826588041       37.5998125182
H                27.3068109932       38.2095766855       37.0847461421
H                27.5884248209       35.4467419210       35.5637562927
N                29.8735712188       39.6015746398       34.3575833116
C                29.7364940808       40.2348700743       33.0793644581
C                28.8803169290       39.4849059642       32.0926099463
O                29.0776451015       39.5776173139       30.9368490817
C                31.1351265390       40.4875045735       32.5777536437
C                31.9354467834       40.7671353462       33.8390713771
C                33.4091739798       40.7838147586       33.5420401500
O                33.7634609075       40.2784795515       32.5381255738
N                34.2878710119       41.2985843436       34.5100572569
H                30.7532843791       39.0467062949       34.3733001810
H                29.2385845099       41.2003310136       33.0612400911
H                31.5389185331       39.5940921430       32.1348650997
H                31.1729786806       41.3791475851       31.9598817806
H                31.7487438288       41.7810745447       34.1111596901
H                31.6612020179       39.9825835026       34.5553271115
H                33.8574891221       41.7281143661       35.3141691392
H                35.3018079535       41.3230348242       34.2858228995
N                27.9223258111       38.7232453650       32.5492644451
C                27.0644337550       37.8336940986       31.8349522884
C                27.8325884380       37.5509092261       30.1827815859
O                27.0402617744       37.6097595984       29.4432240821
C                25.6185746870       38.3704562533       32.2799663010
C                24.6052971518       38.6715534897       32.4845969726
C                23.6495846223       39.1340615555       31.9474830570
N                22.2153720171       38.3668212345       33.3384808809
C                21.4755238757       37.7704945352       32.6560691975
N                21.6718700355       37.0587076075       31.4561130334
N                20.4826190447       37.1212470310       33.6638678063
H                27.4247329695       38.4900655765       33.5152060556
H                26.9432000459       36.8943805761       32.0972960369
H                25.8208318303       39.5272411865       31.6092947388
H                25.2562777420       38.1041965909       30.6496291577
H                24.5479943363       37.4563182842       33.1304599572
H                25.1836972427       39.0601207324       33.8568341819
H                23.3683299090       40.2416142785       32.7044240114
H                23.1650800591       39.1172316560       31.3718624676
H                22.2036207133       38.7459840722       34.1844604123
H                22.3906701851       37.4587753862       30.8088657823
H                20.9869734646       36.4342339577       31.0737388640
H                20.6551167127       37.5384105138       34.2685703549
H                19.9646312442       36.3534224871       33.0559519756
N                28.7366311410       36.5324400212       30.5340049797
C                29.3025281932       35.9403807471       29.3635904625
C                28.3014143872       35.1985617215       28.6927370027
O                27.3898843187       34.3582005808       29.0768465867
C                30.3403059494       35.0054479803       29.7825726654
C                30.7208768169       35.5277223675       31.1427016795
C                29.4358693073       35.9686268181       31.7267927536
O                27.9213101165       35.2989699875       27.4712238054
H                29.7669385474       36.6420403613       28.6786647995
H                30.0217500865       34.0375209676       29.9417947337
H                31.1898762477       35.1207695632       29.2277832655
H                31.0867592752       34.7018678641       31.6006494534
H                31.3971960114       36.2897308415       30.9528841927
H                28.9166584343       35.1216504640       32.2301251100
H                29.6604080267       36.7424950867       32.4459428220
N                32.4218123542       32.2952646917       36.6930259307
C                33.0943092173       32.3555632802       35.3697432704
C                34.5094310137       32.8186511190       35.4689456938
O                34.8018076365       33.7344655835       36.1746023521
C                32.4256636683       33.2457138236       34.3176267475
C                30.9430212743       33.0217190589       34.0838131028
N                29.9423606456       33.7946840510       34.6482692121
C                30.2188256139       31.9945879310       33.4884127429
C                28.7076812471       33.4196562015       34.3272549485
N                28.8697055498       32.3155888727       33.5458632760
H                31.5137355674       32.8276845449       36.6450810276
H                32.9673329609       31.4091999379       34.9247006772
H                32.4931714901       34.2496567648       34.6813235635
H                32.8690480771       33.1066023517       33.3235161571
H                30.7776769821       31.1877162222       33.0559500928
H                27.7078043739       33.8569432007       34.5418950519
H                28.1092601997       31.7595484135       33.1505859264
H                28.4600343115       33.9158589453       40.2054740029
H                29.9225973946       40.0010191273       38.0528447214
H                32.2572748162       31.4368356632       36.9075649755
H                35.2238342121       32.3599629529       34.9405204517
