 501 
 
N                -0.5150000000       45.4520000000       87.1380000000
C                -0.9700000000       46.2890000000       86.0320000000
C                -0.4190000000       47.7090000000       86.1550000000
O                 0.0270000000       48.3050000000       85.1640000000
C                -2.5030000000       46.2930000000       85.9720000000
C                -3.0950000000       44.8900000000       86.0890000000
O                -2.3180000000       43.9140000000       86.0150000000
O                -4.3320000000       44.7690000000       86.2170000000
H                -1.1380000000       45.1370000000       87.6400000000
H                -0.6460000000       45.9170000000       85.1970000000
H                -2.8480000000       46.8270000000       86.7050000000
H                -2.7870000000       46.6700000000       85.1250000000
N                -0.3750000000       48.2280000000       87.3750000000
C                 0.1180000000       49.5780000000       87.5950000000
C                 1.5920000000       49.7770000000       87.2680000000
O                 1.9850000000       50.8570000000       86.8170000000
H                -0.6240000000       47.8210000000       88.0910000000
H                -0.3930000000       50.1910000000       87.0440000000
H                -0.0120000000       49.8100000000       88.5280000000
N                 3.4580000000       47.7460000000       85.1040000000
C                 3.7080000000       47.4370000000       83.7010000000
C                 3.5070000000       48.6540000000       82.8140000000
O                 2.4930000000       49.3620000000       82.9140000000
C                 2.8330000000       46.2670000000       83.2680000000
S                 3.8110000000       44.6670000000       83.3200000000
H                 2.8710000000       47.2410000000       85.4780000000
H                 4.6340000000       47.1710000000       83.5920000000
H                 2.0760000000       46.1880000000       83.8690000000
H                 2.5230000000       46.4120000000       82.3610000000
H                 3.0990000000       43.7880000000       83.7200000000
N                 4.5070000000       48.8760000000       81.9460000000
C                 4.6880000000       50.1210000000       81.2150000000
C                 3.3770000000       50.6540000000       80.6840000000
O                 2.4250000000       49.9090000000       80.4500000000
C                 5.6360000000       49.9590000000       80.0100000000
C                 6.1970000000       51.3000000000       79.5700000000
C                 6.7870000000       49.0400000000       80.3010000000
H                 5.1110000000       48.2930000000       81.7620000000
H                 5.0540000000       50.7440000000       81.8620000000
H                 5.1030000000       49.5700000000       79.2990000000
H                 6.8640000000       51.1520000000       78.8810000000
H                 5.4750000000       51.8440000000       79.2190000000
H                 6.6020000000       51.7390000000       80.3340000000
H                 7.3880000000       49.0350000000       79.5400000000
H                 7.2550000000       49.3590000000       81.0890000000
H                 6.4460000000       48.1460000000       80.4580000000
N                 3.3330000000       51.9460000000       80.4610000000
C                 2.4570000000       52.4950000000       79.4430000000
C                 2.8860000000       53.9360000000       79.2160000000
O                 2.6680000000       54.8210000000       80.0550000000
C                 0.9880000000       52.4150000000       79.8140000000
C                 0.0960000000       52.9730000000       78.6880000000
O                 0.5250000000       53.0290000000       77.5210000000
N                -1.1500000000       53.3460000000       79.0230000000
H                 3.8000000000       52.5310000000       80.8840000000
H                 2.5290000000       51.9760000000       78.6270000000
H                 0.7450000000       51.4890000000       79.9670000000
H                 0.8310000000       52.9370000000       80.6170000000
H                -1.6800000000       53.6630000000       78.4250000000
H                -1.4180000000       53.2690000000       79.8370000000
N                 3.5400000000       54.1650000000       78.1020000000
C                 4.0480000000       55.4780000000       77.7590000000
C                 3.0980000000       56.2420000000       76.8510000000
O                 3.3110000000       57.4300000000       76.6140000000
C                 5.4300000000       55.2930000000       77.1320000000
C                 6.2780000000       54.3250000000       77.9430000000
O                 6.2250000000       54.3000000000       79.1950000000
N                 7.0330000000       53.4900000000       77.2380000000
H                 3.7080000000       53.5640000000       77.5100000000
H                 4.1640000000       56.0390000000       78.5430000000
H                 5.3320000000       54.9370000000       76.2350000000
H                 5.8870000000       56.1480000000       77.1010000000
H                 7.5340000000       52.9190000000       77.6410000000
H                 7.0210000000       53.5200000000       76.3790000000
N                 2.0420000000       55.6020000000       76.3630000000
C                 1.0040000000       56.3730000000       75.7070000000
C                 0.2100000000       57.1840000000       76.7220000000
O                -0.2750000000       58.2610000000       76.3790000000
C                 0.0730000000       55.4680000000       74.8800000000
C                 0.8140000000       54.4090000000       74.0450000000
O                 1.5140000000       54.8030000000       73.0740000000
O                 0.6560000000       53.1930000000       74.3400000000
H                 1.9100000000       54.7530000000       76.3990000000
H                 1.4210000000       56.9850000000       75.0810000000
H                -0.5260000000       55.0020000000       75.4830000000
H                -0.4370000000       56.0220000000       74.2680000000
N                 0.0480000000       56.6980000000       77.9680000000
C                -0.8900000000       57.3260000000       78.9040000000
C                -0.3090000000       57.5220000000       80.3060000000
O                 0.4290000000       56.6670000000       80.8030000000
C                -2.1910000000       56.5020000000       79.0460000000
C                -3.1300000000       56.5230000000       77.8950000000
C                -4.4850000000       55.8960000000       78.2170000000
O                -5.3030000000       56.5520000000       78.9010000000
O                -4.7320000000       54.7520000000       77.7770000000
H                 0.4670000000       56.0160000000       78.2840000000
H                -1.0730000000       58.2080000000       78.5450000000
H                -1.9450000000       55.5750000000       79.1920000000
H                -2.6780000000       56.8410000000       79.8130000000
H                -3.2820000000       57.4430000000       77.6300000000
H                -2.7380000000       56.0260000000       77.1600000000
N                -0.6720000000       58.6430000000       80.9480000000
C                -0.1980000000       58.9250000000       82.2920000000
C                -0.9400000000       58.0230000000       83.2530000000
O                -2.0120000000       57.4860000000       82.9430000000
C                -0.4040000000       60.3840000000       82.7030000000
O                -1.7710000000       60.5790000000       83.1370000000
C                 0.0050000000       61.3000000000       81.5250000000
H                -1.1900000000       59.2470000000       80.6220000000
H                 0.7590000000       58.7680000000       82.3330000000
H                 0.1540000000       60.6320000000       83.4560000000
H                -1.9000000000       61.3880000000       83.3250000000
H                -0.1120000000       62.2300000000       81.7730000000
H                 0.9360000000       61.1490000000       81.2960000000
H                -0.5450000000       61.1090000000       80.7490000000
N                -0.3360000000       57.8220000000       84.4270000000
C                -0.9570000000       56.9290000000       85.3980000000
C                -2.3470000000       57.4300000000       85.7290000000
O                -3.3060000000       56.6630000000       85.6840000000
C                -0.1020000000       56.7970000000       86.6580000000
S                 1.6900000000       56.1020000000       86.4400000000
H                 0.4060000000       58.1790000000       84.6750000000
H                -1.0200000000       56.0380000000       85.0210000000
H                -0.0160000000       57.6780000000       87.0550000000
H                -0.5620000000       56.2010000000       87.2700000000
N                -2.4850000000       58.7400000000       85.9420000000
C                -3.7860000000       59.3390000000       86.2320000000
C                -4.8600000000       58.9020000000       85.2330000000
O                -5.9500000000       58.4680000000       85.6350000000
C                -3.6790000000       60.8700000000       86.2110000000
C                -2.9080000000       61.5080000000       87.3790000000
C                -1.3620000000       61.2780000000       87.3270000000
O                -0.8480000000       60.4730000000       86.5050000000
O                -0.6520000000       61.9660000000       88.0960000000
H                -1.8370000000       59.3060000000       85.9240000000
H                -4.0500000000       59.0440000000       87.1170000000
H                -3.2290000000       61.1310000000       85.3930000000
H                -4.5770000000       61.2370000000       86.2270000000
H                -3.0630000000       62.4650000000       87.3680000000
H                -3.2330000000       61.1280000000       88.2100000000
N                -4.5870000000       59.0530000000       83.9240000000
C                -5.5580000000       58.6670000000       82.8990000000
C                -5.9870000000       57.2250000000       83.0890000000
O                -7.1720000000       56.9400000000       83.2640000000
C                -4.9920000000       58.8510000000       81.4900000000
C                -4.5300000000       60.2820000000       81.1540000000
C                -3.6360000000       60.3260000000       79.8930000000
O                -3.1480000000       59.2900000000       79.4340000000
N                -3.3790000000       61.5290000000       79.3760000000
H                -3.8530000000       59.3730000000       83.6120000000
H                -6.3260000000       59.2530000000       82.9860000000
H                -4.2240000000       58.2670000000       81.3900000000
H                -5.6790000000       58.6090000000       80.8500000000
H                -5.3090000000       60.8380000000       80.9920000000
H                -4.0200000000       60.6360000000       81.8990000000
H                -3.7060000000       62.2340000000       79.7440000000
H                -2.8860000000       61.6000000000       78.6750000000
N                -4.9960000000       56.3110000000       83.0970000000
C                -5.2200000000       54.8720000000       83.2640000000
C                -5.9680000000       54.5430000000       84.5740000000
O                -6.8480000000       53.6840000000       84.5890000000
C                -3.8630000000       54.1530000000       83.2520000000
C                -2.9310000000       54.5450000000       82.1630000000
C                -1.4350000000       54.2430000000       82.5260000000
N                -1.1760000000       52.8140000000       82.7730000000
C                 0.0230000000       52.2590000000       82.9930000000
N                 1.1240000000       53.0080000000       82.9920000000
N                 0.1150000000       50.9380000000       83.1960000000
H                -4.1640000000       56.5080000000       83.0050000000
H                -5.7680000000       54.5580000000       82.5280000000
H                -3.4150000000       54.3370000000       84.0920000000
H                -4.0240000000       53.2010000000       83.1630000000
H                -3.1530000000       54.0480000000       81.3600000000
H                -3.0160000000       55.4970000000       81.9980000000
H                -0.8690000000       54.5260000000       81.7910000000
H                -1.2010000000       54.7310000000       83.3310000000
H                -1.8570000000       52.2890000000       82.7760000000
H                 1.0680000000       53.8540000000       82.8490000000
H                 1.8900000000       52.6450000000       83.1340000000
H                -0.5940000000       50.4510000000       83.1840000000
H                 0.8820000000       50.5770000000       83.3370000000
N                -5.6080000000       55.1620000000       85.6860000000
C                -6.2810000000       54.8320000000       86.9320000000
C                -7.7140000000       55.3330000000       87.0030000000
O                -8.4230000000       54.9340000000       87.9400000000
C                -5.5200000000       55.4110000000       88.1230000000
H                -4.9940000000       55.7610000000       85.7460000000
H                -6.2890000000       53.8650000000       87.0000000000
H                -6.0050000000       55.2050000000       88.9370000000
H                -4.6360000000       55.0140000000       88.1550000000
H                -5.4480000000       56.3720000000       88.0140000000
N                -8.1280000000       56.2190000000       86.0720000000
C                -9.5230000000       56.6580000000       85.9800000000
C               -10.4140000000       55.5310000000       85.4450000000
O               -11.5210000000       55.3210000000       85.9480000000
C                -9.6120000000       57.8900000000       85.0890000000
H                -7.6140000000       56.5780000000       85.4840000000
H                -9.8450000000       56.9010000000       86.8610000000
H               -10.5240000000       58.2220000000       85.0990000000
H                -9.0090000000       58.5700000000       85.4280000000
H                -9.3590000000       57.6450000000       84.1850000000
N                -9.9140000000       54.7560000000       84.4570000000
C               -10.6010000000       53.6340000000       83.8160000000
C               -10.8170000000       52.4110000000       84.7160000000
O               -11.5710000000       51.5200000000       84.3150000000
C                -9.7880000000       53.1870000000       82.6060000000
C                -9.3710000000       54.3490000000       81.7120000000
C                -8.2500000000       53.9870000000       80.7280000000
N                -7.8970000000       55.1960000000       80.0160000000
C                -8.2610000000       55.4780000000       78.7640000000
N                -8.9810000000       54.6050000000       78.0650000000
N                -7.8920000000       56.6380000000       78.2010000000
H                -9.1290000000       54.8730000000       84.1260000000
H               -11.4780000000       53.9490000000       83.5460000000
H                -8.9830000000       52.7420000000       82.9140000000
H               -10.3220000000       52.5770000000       82.0750000000
H               -10.1390000000       54.6390000000       81.1950000000
H                -9.0530000000       55.0770000000       82.2700000000
H                -7.4740000000       53.6570000000       81.2070000000
H                -8.5590000000       53.3190000000       80.0960000000
H                -7.4160000000       55.7760000000       80.4300000000
H                -9.2130000000       53.8570000000       78.4200000000
H                -9.2150000000       54.7890000000       77.2580000000
H                -7.4200000000       57.2020000000       78.6480000000
H                -8.1280000000       56.8190000000       77.3940000000
N               -10.1620000000       52.3380000000       85.8820000000
C               -10.3300000000       51.2290000000       86.8200000000
C               -11.7570000000       51.2180000000       87.3300000000
O               -12.3900000000       52.2840000000       87.5130000000
C                -9.3380000000       51.4180000000       87.9890000000
C                -7.9050000000       51.2390000000       87.4910000000
C                -9.6540000000       50.5340000000       89.2530000000
C                -6.8630000000       51.4300000000       88.5720000000
H                -9.6030000000       52.9300000000       86.1570000000
H               -10.1580000000       50.3820000000       86.3810000000
H                -9.4480000000       52.3290000000       88.3050000000
H                -7.8060000000       50.3410000000       87.1380000000
H                -7.7330000000       51.8900000000       86.7930000000
H                -8.9640000000       50.6770000000       89.9190000000
H               -10.5180000000       50.7930000000       89.6110000000
H                -9.6710000000       49.6010000000       88.9890000000
H                -5.9800000000       51.3590000000       88.1760000000
H                -6.9770000000       52.3070000000       88.9700000000
H                -6.9780000000       50.7430000000       89.2470000000
N                -7.3030000000       50.9700000000       93.3850000000
C                -6.9620000000       52.2190000000       92.7010000000
C                -5.6760000000       52.7880000000       93.2600000000
O                -4.7730000000       53.1520000000       92.4970000000
C                -8.0950000000       53.2540000000       92.7940000000
C                -9.3310000000       52.7890000000       92.0360000000
C                -7.6870000000       54.6130000000       92.1800000000
C               -10.5400000000       53.6670000000       92.2840000000
H                -8.0270000000       51.0000000000       93.8470000000
H                -6.8370000000       52.0070000000       91.7630000000
H                -8.2800000000       53.3510000000       93.7420000000
H                -9.1410000000       52.8020000000       91.0850000000
H                -9.5530000000       51.8870000000       92.3180000000
H                -8.4170000000       55.2420000000       92.2920000000
H                -6.8960000000       54.9410000000       92.6360000000
H                -7.4970000000       54.4890000000       91.2370000000
H               -11.3010000000       53.2980000000       91.8090000000
H               -10.7240000000       53.6900000000       93.2360000000
H               -10.3510000000       54.5630000000       91.9620000000
N                -2.9210000000       50.3870000000       92.3730000000
C                -2.5540000000       50.6020000000       90.9750000000
C                -1.6400000000       51.8280000000       90.8400000000
O                -0.5070000000       51.7300000000       90.3480000000
C                -3.8290000000       50.7380000000       90.0930000000
C                -3.4960000000       50.9670000000       88.6400000000
C                -3.3630000000       49.8580000000       87.7790000000
C                -3.2860000000       52.2710000000       88.1410000000
C                -3.0000000000       50.0390000000       86.4770000000
C                -2.9640000000       52.4920000000       86.8850000000
C                -2.8050000000       51.3840000000       86.0100000000
H                -3.7670000000       50.3300000000       92.5120000000
H                -2.0680000000       49.8280000000       90.6520000000
H                -4.3500000000       49.9220000000       90.1590000000
H                -4.3530000000       51.4920000000       90.4060000000
H                -3.5240000000       49.0000000000       88.1000000000
H                -3.3780000000       52.9950000000       88.7170000000
H                -2.8820000000       49.3130000000       85.9070000000
H                -2.8420000000       53.3600000000       86.5750000000
H                -2.5710000000       51.5320000000       85.1220000000
N                -2.1210000000       52.9970000000       91.2990000000
C                -1.4060000000       54.2510000000       91.1050000000
C                 0.0070000000       54.1520000000       91.6190000000
O                 0.9620000000       54.2480000000       90.8460000000
C                -2.1780000000       55.3650000000       91.8130000000
O                -3.5140000000       55.3680000000       91.2850000000
C                -1.5440000000       56.7380000000       91.6710000000
H                -2.8620000000       53.0820000000       91.7260000000
H                -1.3560000000       54.4600000000       90.1600000000
H                -2.1760000000       55.1950000000       92.7680000000
H                -3.9300000000       54.6890000000       91.5520000000
H                -2.0900000000       57.4030000000       92.1190000000
H                -0.6590000000       56.7380000000       92.0680000000
H                -1.4680000000       56.9740000000       90.7330000000
N                 2.4180000000       52.4460000000       89.8070000000
C                 2.6550000000       53.0420000000       88.5060000000
C                 3.6250000000       54.2200000000       88.5970000000
O                 4.6400000000       54.2620000000       87.8850000000
C                 1.3510000000       53.4850000000       87.9200000000
S                 1.5670000000       54.1440000000       86.2600000000
H                 1.6340000000       52.5760000000       90.1380000000
H                 3.0520000000       52.3760000000       87.9220000000
H                 0.7480000000       52.7270000000       87.8720000000
H                 0.9690000000       54.1800000000       88.4780000000
N                 3.3440000000       55.1740000000       89.4940000000
C                 4.1680000000       56.3690000000       89.5920000000
C                 5.5650000000       55.9910000000       89.9930000000
O                 6.5420000000       56.4650000000       89.3940000000
C                 3.5710000000       57.3560000000       90.5890000000
C                 4.5170000000       58.5040000000       90.7520000000
C                 2.1960000000       57.8330000000       90.0680000000
H                 2.6860000000       55.1480000000       90.0480000000
H                 4.1930000000       56.7950000000       88.7220000000
H                 3.4380000000       56.9420000000       91.4550000000
H                 4.0880000000       59.1930000000       91.2830000000
H                 5.3180000000       58.1910000000       91.2010000000
H                 4.7440000000       58.8540000000       89.8770000000
H                 1.7850000000       58.4020000000       90.7380000000
H                 2.3250000000       58.3310000000       89.2460000000
H                 1.6360000000       57.0590000000       89.9020000000
N                 7.4890000000       54.1330000000       87.1840000000
C                 7.9000000000       55.0570000000       86.1370000000
C                 9.0700000000       55.9130000000       86.6040000000
O                10.0040000000       56.1690000000       85.8310000000
C                 6.7300000000       55.9330000000       85.7310000000
O                 5.6700000000       55.1180000000       85.2740000000
H                 6.6930000000       54.2490000000       87.4900000000
H                 8.1810000000       54.5520000000       85.3570000000
H                 6.4330000000       56.4470000000       86.4980000000
H                 7.0070000000       56.5290000000       85.0180000000
H                 5.1850000000       54.8890000000       85.9210000000
N               -11.5168446620       61.6697600975       89.7790067139
C               -10.3005564638       61.7830871415       88.9600067139
C                -9.2473818061       62.8449351252       89.2730067139
O                -8.1902916471       62.9160012617       88.5980067139
C               -10.7400531958       62.0143178111       87.4890067139
C               -10.9889882555       60.7874859824       86.5950067139
C               -10.4478441564       60.9601969085       85.1540067139
O               -11.2081844080       61.1551448552       84.1910067139
N                -9.1182450691       60.9472637356       85.0220067139
H               -12.2319695232       61.7383926908       89.3070067139
H                -9.8363147941       60.9529969825       89.1500067139
H               -11.5694870594       62.5169394043       87.5060067139
H               -10.0460392977       62.5362504785       87.0550067139
H               -10.5503183826       60.0176874746       86.9880067139
H               -11.9454732968       60.6301666705       86.5370067139
H                -8.6185573395       60.8477791999       85.7150067139
H                -8.7626720762       61.0393932460       84.2440067139
N                -7.3509319727       60.9641876597       92.3270067139
C                -6.3365532454       60.2092321659       91.6000067139
C                -5.0308286062       60.9896507502       91.5650067139
O                -4.0340101700       60.5571105727       92.1450067139
C                -6.7859915731       59.8596821844       90.1740067139
C                -7.7326136719       58.6572797550       90.2650067139
C                -5.5870949892       59.5611323879       89.2740067139
C                -7.9555878980       57.9234824435       88.9420067139
H                -8.1006715706       61.0347747357       91.9120067139
H                -6.1878704855       59.3817060715       92.0840067139
H                -7.2479101574       60.6137486413       89.7760067139
H                -7.3610155957       58.0196530070       90.8950067139
H                -8.5966667363       58.9678635631       90.5780067139
H                -5.9076032269       59.3102689399       88.3940067139
H                -5.0339567354       60.3550688289       89.2120067139
H                -5.0774110331       58.8323338802       89.6600067139
H                -8.6161972949       57.2256914828       89.0760067139
H                -8.2735808565       58.5562624039       88.2800067139
H                -7.1172284086       57.5334012128       88.6520067139
N                -5.0049095164       62.1327575697       90.8670067139
C                -3.7662444777       62.9033267890       90.8200067139
C                -3.2831984548       63.1706665350       92.2190067139
O                -2.1086608547       62.9943077362       92.5220067139
C                -3.9134567850       64.2363059849       90.0970067139
C                -4.3280534800       64.1124085253       88.6950067139
C                -5.0135727179       65.3597626749       88.2540067139
O                -5.7217367455       65.9543387507       89.1040067139
O                -4.8424901060       65.7414388988       87.0780067139
H                -5.6656498049       62.4671933200       90.4300067139
H                -3.1267310852       62.3776571011       90.3140067139
H                -4.5823887618       64.7669301555       90.5560067139
H                -3.0587781688       64.6939591974       90.1120067139
H                -3.5489741361       63.9710035185       88.1350067139
H                -4.9438064704       63.3689239896       88.6010067139
N                -1.2056350808       60.3102212153       93.2140067139
C                 0.0209191798       60.0957669177       92.4560067139
C                 1.0137374310       61.2301552639       92.6100067139
O                 2.2311673360       61.0035048139       92.4940067139
C                -0.3153499655       59.9582021625       90.9740067139
H                -1.9039035355       60.3816576563       92.7180067139
H                 0.4308858588       59.2816838002       92.7880067139
H                 0.5085569280       59.8611535622       90.4710067139
H                -0.8741221938       59.1760240518       90.8480067139
H                -0.7882422704       60.7532756610       90.6830067139
N               -10.7000814065       52.0089153588       73.0750055949
C                -9.2382913215       52.0148100560       72.9970055949
C                -8.8273778920       52.4565329934       74.4080055949
O                -8.7404431528       53.6511083787       74.7040055949
C                -8.7284778550       52.9398328823       71.9360055949
C                -7.2895300934       52.7741635149       71.6980055949
O                -6.6949880291       51.7519405775       72.0920055949
N                -6.6852095853       53.7808773390       71.0480055949
H               -10.9961037274       52.4661896589       73.7400055949
H                -8.8772722687       51.1401133980       72.7860055949
H                -9.1936777810       52.7580829749       71.1050055949
H                -8.8848969449       53.8569070715       72.2110055949
H                -5.8426905325       53.7401631448       70.8800055949
H                -7.1408363333       54.4677086622       70.7990055949
N                -8.6764062433       51.4860235595       75.2990055949
C                -8.2401748831       51.8195984392       76.6450055949
C                -6.8013097334       52.3317859838       76.6530055949
O                -6.3603866849       52.8554871060       77.6710055949
C                -8.4158390958       50.5873390978       77.5580055949
C                -9.7696509960       50.5964681027       78.3060055949
O                -9.8288272199       50.9839718763       79.4810055949
N               -10.8494309565       50.1402343502       77.6280055949
H                -8.8161966984       50.6498993889       75.1530055949
H                -8.7916099428       52.5224848987       77.0210055949
H                -8.3767520197       49.7830398995       77.0170055949
H                -7.7067693708       50.5774838875       78.2190055949
H               -11.6212397738       50.1274222649       78.0060055949
H               -10.7626015201       49.8626273456       76.8180055949
N                -6.0890630939       52.2554333509       75.5340055949
C                -4.6764421913       52.5841645261       75.4770055949
C                -4.3985459278       53.9894949736       74.9790055949
O                -3.2231563854       54.3293293797       74.8280055949
C                -3.9990629584       51.6134197734       74.5420055949
C                -4.5545636490       50.2332643536       74.6950055949
O                -4.3773784968       49.6621580396       75.7880055949
O                -5.2550911246       49.7659151737       73.7590055949
H                -6.4130290823       52.0083077991       74.7770055949
H                -4.3036730459       52.5098196253       76.3690055949
H                -4.1378276396       51.8990722952       73.6260055949
H                -3.0500657209       51.5851312051       74.7400055949
N                -5.4317808765       54.7938795463       74.6890055949
C                -5.2743268994       56.1705978345       74.2200055949
C                -6.4877502684       57.0108869083       74.6130055949
O                -7.6340372704       56.5214595808       74.6090055949
C                -5.1277243590       56.2245208829       72.7030055949
C                -3.8595375051       55.6770849475       72.1650055949
C                -3.7250375051       55.9100457812       70.6510055949
O                -3.3063143826       57.0192955036       70.2360055949
O                -4.0555189578       54.9796351141       69.8740055949
H                -6.2551999664       54.5556758467       74.7600055949
H                -4.4880103500       56.5445380490       74.6460055949
H                -5.8531178601       55.7161024837       72.3080055949
H                -5.1822633404       57.1520565963       72.4240055949
H                -3.1117805560       56.1102379750       72.6050055949
H                -3.8309267269       54.7206402689       72.3270055949
N                -6.2307488872       58.2920263582       74.9020055949
C                -7.3115863763       59.2139609124       75.2420055949
C                -8.0244233598       59.6312910394       73.9650055949
O                -7.4675375909       59.5118454851       72.8770055949
C                -6.7848921106       60.4202221405       76.0280055949
O                -6.0862299698       61.3043404658       75.1700055949
C                -5.8444840209       59.9950567317       77.1290055949
H                -5.4461381091       58.6450120901       74.9060055949
H                -7.9583651406       58.7837072314       75.8240055949
H                -7.5480566438       60.8723823946       76.4220055949
H                -5.9368799143       62.0310223500       75.5650055949
H                -5.5303089932       60.7732238423       77.6160055949
H                -6.3012205359       59.4019658821       77.7460055949
H                -5.0807573099       59.5298701983       76.7520055949
N                -5.6153928012       62.0278543638       72.0470055949
C                -4.4481123352       61.4936434377       71.3480055949
C                -4.8402366908       60.8424641308       70.0180055949
O                -4.1415996333       61.0245390105       69.0070055949
C                -3.7743863148       60.4545711354       72.2270055949
C                -3.5376087467       60.8986819135       73.6700055949
C                -3.5358595298       59.7037116459       74.6380055949
O                -4.0411685322       58.5924907803       74.3230055949
N                -3.0053128163       59.9366455095       75.8300055949
H                -5.6922351246       61.7627595556       72.8620055949
H                -3.8327540419       62.2214752664       71.1690055949
H                -4.3327305249       59.6614905953       72.2520055949
H                -2.9105685692       60.2387473593       71.8420055949
H                -2.6785434859       61.3426265921       73.7320055949
H                -4.2457540419       61.5061382829       73.9370055949
H                -2.6915038140       60.7161786455       76.0160055949
H                -2.9739981536       59.3088840963       76.4160055949
H                -0.0656523022       44.7430820090       86.8131586102
H                 2.2424876753       49.0325515756       87.4185401198
H                 4.2209937607       47.6542226811       85.5724201585
H               -12.2108332680       50.3489932803       87.5271362118
H                -7.4090277436       50.3142094102       92.7777958993
H                -5.5541637057       52.8706990763       94.2490989739
H                -2.5542959241       49.6187676362       92.6651423555
H                 0.1753814604       54.0073321808       92.5940481557
H                 2.5250087333       51.5540279491       89.7528244382
H                 5.7129355353       55.3525105739       90.7482789750
H                 7.5190307648       53.2902040700       86.8696861863
H                 9.0864449671       56.2707979475       87.5376542143
H               -11.5285370047       60.8693593631       90.1903726745
H                -9.3962983560       63.4916025146       90.0211010586
H                -7.5206409725       60.5597797480       93.1129158030
H                -3.9229269095       63.4963984090       92.9151721041
H                -1.3394562637       59.6164691972       93.7715011339
H                 0.6890715347       62.1558764312       92.8039973738
H               -11.0425658952       52.3625331329       72.3215742146
H                -8.6243452068       51.7710860562       75.1072482030
