 435 
 
N                13.8307854651       33.7861405997      -14.8790496681
C                14.0848475876       34.9775042972      -13.9402082704
C                14.5736053962       34.5220678946      -12.5661287876
O                15.1803408148       35.0554288561      -11.8191481664
C                12.7158325130       35.7023414299      -13.7451951970
S                11.5232055073       34.8834782588      -12.7658501265
H                12.8460277960       33.5753578462      -14.9507302830
H                14.7917770779       35.6310724823      -14.3558537902
H                13.0453526905       36.6550050094      -13.2789587815
H                12.3137034384       35.8715298465      -14.7470167583
H                10.6180331713       35.5033169129      -12.2795754252
N                14.1797702409       33.1561127227      -12.4285516408
C                14.6342899476       32.5132113982      -11.1215441202
C                15.1648588551       31.0540403703      -11.5146719273
O                15.2711218520       30.6491021457      -12.4262643081
C                13.4284076760       32.3401389109      -10.1498671336
C                13.1272500611       33.5499841031       -9.2696055389
C                12.1066350713       31.9763717398      -11.0004020716
H                13.6127528325       32.4600892082      -12.9767904991
H                15.3439376900       33.1254408221      -10.6192015434
H                13.5105308431       31.4212371749       -9.5204489811
H                12.2266519827       33.2429987070       -8.6805912223
H                14.0441260967       33.6566284497       -8.6622707626
H                12.9482424123       34.3230490502      -10.0080127496
H                11.2627917250       31.7786143103      -10.2865716126
H                11.9578229373       32.7980923597      -11.7254494508
H                12.3297974194       31.0115928334      -11.5486287265
N                15.6073382880       30.4976930047      -10.3358457684
C                16.1631595728       29.0941682285      -10.5350329295
C                16.0829101612       28.2605810955       -9.0748849709
O                16.6205721794       28.7504371997       -8.1303918420
C                17.3141065541       28.9428437664      -11.2266274423
C                17.9239684379       27.5795113081      -11.4056547455
O                17.2390728745       26.6698713122      -11.7972492356
N                19.1728756211       27.1889144218      -10.9397897998
H                15.6460632166       30.6770713469       -9.3896685374
H                15.2880243519       28.6293736355      -10.9758891530
H                17.3789030710       29.4178309780      -12.1897708509
H                18.1233194979       29.3770184157      -10.6107787254
H                19.5307910914       26.1568750464      -11.1526338718
H                19.7065855878       27.9490025957      -10.6709175532
N                17.2280518306       26.0966340941       -6.2630198699
C                18.6020653022       25.7176867296       -5.7181950730
C                18.5142745437       24.2558638965       -4.9141534793
O                19.2687953849       23.6628504552       -4.8215570100
C                18.9891026808       26.7948050691       -4.6657378239
C                19.7778765380       26.1535918512       -3.4739087909
C                19.8298087002       27.8836814997       -5.4027518885
H                16.5476701182       26.3013826354       -5.5747294266
H                19.2821228969       25.7486247117       -6.4844629678
H                18.1179495990       27.2912057271       -4.2405498247
H                20.0140355830       26.9238977872       -2.7455806881
H                19.0398858487       25.3622572474       -3.1029194219
H                20.6026130630       25.6082619627       -3.9990635636
H                20.0852260817       28.5747436354       -4.5592800794
H                20.6867920324       27.3393712268       -5.7894226067
H                19.1478270649       28.3461689187       -6.1132422849
N                13.8907633999       25.9638657894       -1.5036154313
C                14.8327160377       27.0908855742       -1.7973678860
C                15.0013446111       27.4290565748       -3.2785326730
O                14.9614378717       26.5809542870       -4.0480072808
C                16.2387113024       26.7920262304       -1.1536050594
C                17.0710371909       27.9884042482       -0.8106939217
C                18.5146195984       27.6605156865       -0.7047171573
C                19.3433007101       28.8949698443       -1.0175117609
N                20.2071182849       29.2854446185       -0.0060841079
H                14.2392057889       25.1421759898       -1.9341022904
H                14.5396054098       28.0324823272       -1.3212360441
H                16.0916722939       26.2115475586       -0.2281367691
H                16.7899376917       26.2039975420       -1.8890730081
H                16.9726947569       28.6755386669       -1.6339646398
H                16.7759098819       28.3296796690        0.1427868455
H                18.8029205856       27.3630264593        0.2900956018
H                18.8114047531       26.9054396897       -1.4885668751
H                19.8832591451       28.6531901614       -1.9535143584
H                18.6018223297       29.6855437746       -1.2863029307
H                20.7067560012       30.1780844748       -0.2897693916
H                19.6334215786       29.6298399770        0.7867141825
H                20.9611623147       28.5363201074        0.1783117003
N                15.1635943538       28.7478363448       -3.4013722649
C                15.0227777679       29.2184998560       -4.7578668829
C                16.1119332205       30.4556577296       -5.0641451026
O                16.3376868239       31.1594467231       -3.9432911922
C                13.7040627729       29.7291257579       -5.1657888969
C                13.1991106515       30.1657355931       -6.5668937853
C                12.8453290382       28.9053502782       -7.3642494993
C                12.1283626792       31.2185238089       -6.4661641834
H                15.3628627405       29.5365944663       -2.8031761381
H                15.3837981489       28.5571695404       -5.5922563789
H                12.9872884905       29.0027570649       -4.8813114526
H                13.5841259561       30.6936365904       -4.6510114146
H                14.0508668977       30.5998541123       -7.0724596758
H                12.4862941689       29.3017161984       -8.3492238007
H                13.6923161083       28.2452174199       -7.4048440304
H                11.9598890422       28.5185075886       -6.8021377368
H                11.8378005159       31.4594336038       -7.5281312455
H                11.2839688084       30.7385146102       -5.9537914744
H                12.5201365383       32.0999091713       -5.9566471952
N                16.7191679281       30.7312179576       -6.4000158158
C                17.3933987597       31.6204318401       -6.1982138311
C                17.1458271871       32.6762464874       -7.5184224973
O                16.5194698821       32.4185643071       -8.3023563537
C                19.0116251408       31.1877517380       -7.0625065623
C                19.7771185194       32.3268540085       -7.0051834657
C                21.1474997076       32.1358995112       -8.2839178180
O                20.6760192860       31.3777172593       -8.3325459731
O                22.1102596319       32.6127189861       -8.4775436940
H                16.5052554007       29.9751878487       -7.0143287311
H                17.5787667560       32.3139793380       -5.5873091001
H                19.2929668617       30.6383417824       -6.0965386445
H                18.8727563534       30.7300963497       -7.7474305133
H                19.3542756261       33.2925368711       -7.4699630917
H                20.3197917958       32.6132888595       -6.1186033696
N                17.2689298084       33.9010063782       -7.2190562928
C                16.9126403644       34.9646222742       -8.1604396765
C                17.6609837825       35.6897228315       -8.9956894415
O                18.6952572892       35.9221219984       -8.8366669924
C                16.3262012425       36.4659011654       -7.1914004969
C                15.4774299100       35.8144445644       -6.2420789107
C                15.5803976174       37.3470399722       -8.1449771372
C                14.1054534956       35.2955288315       -6.5397736774
H                17.6811626340       34.3840427494       -6.4137962085
H                15.9377476954       34.7118490700       -8.6511207300
H                17.1994640605       36.8135652052       -6.9181110939
H                15.8787616937       35.0745839442       -5.6192965673
H                15.2899152810       36.6713840083       -5.5120530034
H                15.1384578593       38.1439794243       -7.6390558724
H                16.1300594859       37.6172788730       -8.9809957249
H                14.6719522969       36.7182542034       -8.6346534918
H                13.4811679889       35.0636118917       -5.5884180797
H                13.5169899494       36.2044053501       -7.0225907782
H                14.1778345614       34.5824425635       -7.2295295488
N                17.2719548139       35.4481400619      -10.3742314213
C                18.2235326099       35.7324830994      -11.5794009567
C                17.9764585341       36.9438661784      -12.3579295706
O                18.6926611156       37.4019786056      -13.1570483600
C                18.2966420729       34.5631463081      -12.5757873822
C                18.4272889351       33.1121704821      -11.9241889767
C                18.3170224207       32.0454016873      -12.9797649278
C                19.7228618039       32.9840407372      -11.1039649944
H                16.3652557165       35.2331786211      -10.7602121685
H                19.3016989099       35.7427676708      -11.2265621281
H                17.2827940264       34.5510488410      -12.9930569528
H                19.1156555480       34.6116426688      -13.2297236617
H                17.5526512365       32.9184367080      -11.2823063243
H                18.3777149999       31.0352323417      -12.5362300545
H                17.3461965301       32.1795870239      -13.5246716774
H                19.1423262503       32.2593783025      -13.7031625488
H                19.6855016095       31.9741649569      -10.7125353593
H                20.4918217666       33.2388899811      -11.8322835537
H                19.5718789857       33.8210843069      -10.3585622353
N                16.7830691460       37.4572950774      -11.9789025652
C                16.4175422949       38.7798911113      -12.5707981754
C                15.8543666552       39.7800795121      -11.4536586121
O                15.0567127693       39.3871844778      -10.7270601291
C                15.3077153234       38.5411922527      -13.6734372026
C                15.6988614354       37.9361054324      -14.9860929262
C                14.6084332921       37.6286539585      -15.8789166855
O                13.5984464141       37.9715209492      -15.5841276378
N                14.9562463219       36.9302557573      -17.0213906946
H                16.1270922463       37.2246862200      -11.2528974141
H                17.2188625476       39.3264222209      -13.0784036703
H                14.6156828893       37.8297389092      -13.2256802788
H                14.8599746984       39.5176886952      -13.8863811385
H                16.4287201467       38.6445050671      -15.4088910471
H                16.2319799158       37.0146914786      -14.7135742488
H                15.9539421300       36.7141502382      -17.1813382528
H                14.1863126701       36.8037328195      -17.6935224483
N                16.4637207827       41.0235483769      -11.5120813629
C                15.8655361710       42.0336913725      -10.6188888949
C                14.5134928452       42.4672141815      -11.0420333295
O                14.1230274324       42.4249908975      -12.0416962571
C                16.7310289583       43.2760895028      -10.7103693153
C                18.2469496716       43.0225811387      -10.5778049305
O                18.6372544678       43.0458285919       -9.6164716700
N                19.0045617872       43.0252059352      -11.7508969911
H                17.1814708617       41.3391716782      -12.0541157974
H                16.0486763350       41.7477283526       -9.6332879989
H                16.6573390523       43.7478056014      -11.6862613775
H                16.5108510356       44.0182354290       -9.9191666988
H                20.0310426098       42.7675801438      -11.6541394581
H                18.4819501123       43.0418614949      -12.5721979670
N                 8.4163406447       41.0852476857       -7.3750831691
C                 8.0973216828       39.7051861169       -7.0042909712
C                 6.8673442052       39.6172013901       -5.8061067024
O                 7.2731933542       40.2690855821       -4.4937129961
C                 9.0882424684       38.8318528628       -7.1731783610
C                10.0572729286       38.6084517633       -7.7130339855
C                11.2380140786       39.2732921081       -7.8871477924
C                10.0525876811       37.5095530921       -8.5266508722
C                12.0426266216       39.0253961019       -8.9211819948
C                11.0633383250       37.2523629954       -9.6106926988
C                12.0799001943       38.1822364913       -9.8264966902
O                12.5534932457       38.0057853582      -10.7983300135
H                 9.1588691821       41.4709320644       -6.5490122526
H                 7.4559262749       39.4347397263       -8.0027937017
H                 9.6273462114       39.2545376445       -5.8133438192
H                 8.7148350550       37.8221583053       -6.4922014630
H                11.3264775503       40.3186954552       -7.3973552552
H                 9.1347160253       36.7877086767       -8.5030052437
H                12.9504839652       39.8710685391       -9.1265299801
H                10.7265122962       36.3628174958      -10.2760163013
H                13.6241180491       38.4265850354      -10.7211092376
N                14.9428673913       35.7155924450        3.2402949592
C                15.4627736009       36.2446073829        2.0474081134
C                16.8932381208       36.2237511062        2.0988455658
O                17.5125782486       37.0969199728        2.7242951956
C                14.9673980871       37.7518255705        1.9179909156
C                15.6277055876       38.5143966085        0.7073152549
C                15.3175640456       39.9322644569        0.6047261438
C                16.3479749648       40.8139471674       -0.0348104464
N                15.9594235376       42.2468174335       -0.1506121925
H                14.8673736055       36.4072802093        3.9571503084
H                15.0540104174       35.7859373353        1.1106749790
H                13.8998295265       37.8234188656        1.6814173208
H                15.2751294669       38.3729352701        2.7238392976
H                16.7237276036       38.4534466592        0.7071358701
H                15.2325032939       38.0898832075       -0.2583099617
H                14.4141751396       40.1105649425       -0.0163165906
H                15.1153480029       40.3314059556        1.5975223915
H                17.2364870763       40.7664502778        0.6092435018
H                16.5665873573       40.4547561867       -1.0141059325
H                16.7761252359       42.8447760665       -0.5567139639
H                15.0599631958       42.2985930027       -0.7316995824
H                15.7257207574       42.6050984072        0.8450709018
N                17.5593144054       35.3123551590        1.3391326846
C                18.9523465896       34.9410315520        1.6052352174
C                19.1685570997       34.3186232327        2.9643014054
O                18.6345797749       33.5046197537        3.3728673013
C                19.8331991924       36.1988383034        1.3689914412
C                19.9615022420       36.6080311821       -0.0985254669
O                20.0081424325       35.8378154586       -0.9334378481
N                19.7586190311       37.9679975890       -0.4212753509
H                17.1940099704       34.7644244751        0.6391644739
H                19.1394209226       34.2293202304        0.8739352098
H                19.3597926808       37.0944716366        1.8659629931
H                20.8037100581       36.0906646883        1.8041466776
H                19.8190951963       38.2151663163       -1.4667096854
H                19.6032512177       38.5640808034        0.3324261732
N                13.1207518502       42.1783055255       -5.5389232055
C                14.5039892385       41.3766213234       -5.1815468485
C                15.4087880061       41.3052759918       -6.2740861278
O                15.1469265999       41.9139375564       -7.2807728017
C                13.8520898782       39.7980682666       -5.3566178974
C                12.7560306937       39.5574244421       -4.1757038171
C                12.1537049131       38.4789495813       -4.6490269452
C                13.1437690751       39.1883062469       -2.7107994067
H                12.7266730089       41.8583966974       -6.3927260655
H                14.8285661844       41.4804812402       -4.3148389371
H                13.7649637330       39.4265390246       -6.1409997312
H                14.8123579932       39.2370003304       -4.7420959431
H                12.1514570054       40.4801460374       -4.1498575958
H                11.1113595628       38.2628680790       -4.0144775026
H                11.5533429884       38.7195484128       -5.6838476627
H                12.4781297746       37.5734717798       -4.8030528493
H                12.5091804984       39.0994054032       -2.1385102389
H                13.8886300308       38.4107914744       -2.8139960423
H                13.8826788126       40.1154521401       -2.4765713525
N                16.6384464105       41.0291148728       -5.9126246290
C                17.8049093870       41.2702708038       -6.7933810361
C                18.4988668308       39.9784158760       -7.2102311968
O                18.4105096684       39.0422369331       -6.4366494213
C                18.7275790374       42.3888975401       -6.2773186073
C                18.2270463949       43.7540360318       -5.9890253077
N                17.5683522175       44.4362966394       -7.1190173382
C                17.9278890825       44.4218873579       -4.7876756345
C                17.0159037395       45.5792144857       -6.6294652816
N                17.3118196526       45.4998280633       -5.2769900224
H                17.0054998849       40.6781470132       -5.0606827310
H                17.4851911985       41.5927296015       -7.7830391082
H                19.1466652699       42.0017574820       -5.3318574958
H                19.5757908396       42.5163935855       -6.9881221763
H                17.4293537915       44.1818087033       -7.8698550546
H                18.3156738975       44.0380219026       -3.9083505727
H                16.4677000656       46.2480951619       -7.1553860446
N                19.3599544834       39.9833624117       -8.1764736346
C                19.9029636950       38.9382141465       -8.5407220228
C                21.0978853609       38.4251103917       -7.6323519827
O                21.6378008091       38.9583314194       -7.0099953698
C                20.9303125454       39.3579166028      -10.0395967159
C                21.7913501351       37.6988022691      -10.2994867585
C                19.9948565253       39.9769942109      -11.0226428577
H                19.4647436404       40.8884000579       -8.7776642168
H                19.3537823945       38.1635650026       -9.0253162934
H                21.5937130739       40.0805758612       -9.6413054091
H                22.2375457969       38.2371935053      -11.2793040899
H                22.3490034836       37.7646322794       -9.5525522507
H                20.9600872197       37.2567751532      -10.5126980052
H                20.5217714829       39.9680009737      -11.9025754279
H                19.3096376718       38.9947573076      -11.3011935110
H                19.4540027432       40.6194568462      -10.6695374508
N                20.9355253284       36.9413744725       -7.3574888149
C                21.6732338463       36.5299824303       -6.5362063053
C                20.9961895326       35.9197172771       -5.2204292940
O                21.2720633163       35.3308508392       -4.5392036059
H                20.4605288817       36.3178691025       -8.0774923654
H                21.9862855293       35.1895889028       -6.8961237381
H                22.5761608508       36.9463449948       -6.2154772986
N                19.9366707448       36.8314166987       -5.1993822289
C                18.8419482559       36.7425475698       -3.7866875623
C                18.3057624365       35.3197486218       -3.9859178137
O                17.6453059303       34.3825543395       -5.1783947255
C                17.9531977857       37.9035371345       -3.4487973633
C                18.0625792820       39.1389395239       -3.7134724633
O                19.1516071903       39.2041153481       -3.4916134437
O                17.0582519386       39.7105175811       -3.1021683170
H                19.5690385981       37.6468767594       -5.7148653721
H                19.4035488498       36.9779062183       -3.0864758303
H                17.4292092992       37.8406064224       -5.1105801731
H                16.9553116406       37.3135685948       -3.4410108108
N                18.2945760220       34.8311390218       -2.3360690172
C                17.8008594740       33.5525923953       -2.4803019596
C                16.5164159605       33.6500941925       -1.6073268299
O                16.4641649776       34.3125253171       -1.2343571352
C                18.7229040493       32.7311073072       -1.3639854981
O                18.6705865276       32.5983249307       -0.7665911002
C                20.2954272250       32.2341217298       -2.1530978634
H                18.9712131154       34.9635886879       -1.9600208036
H                17.4552906937       33.0471391646       -3.2673601132
H                18.2225134806       31.5132871705       -1.7300409568
H                19.3868702827       32.0351758714        0.2100810464
H                20.5638151901       31.6818847192       -1.8463330336
H                19.8704509797       32.1768829734       -3.3632852068
H                20.4727405050       33.3394839757       -2.1707686790
N                15.7519648830       32.6295929170       -1.5130032899
C                14.4966373128       32.6816541090       -0.7265301530
C                14.2771783936       31.2065858127       -0.1936223849
O                14.4123597022       30.3088155807       -0.8719962773
C                13.2500528640       32.9929148955       -1.5839572772
C                13.1966182495       34.5399818178       -1.7495399949
C                11.9424573805       32.6038428393       -0.8718209861
C                13.1299086057       35.3471593861       -0.4410987490
H                15.7787503372       31.7183461732       -1.9723733225
H                14.5396002435       33.3856262687        0.1405904974
H                13.2950756602       32.5778002206       -2.5349894473
H                14.1480010396       34.8565528276       -2.2198428394
H                12.3392751069       34.8565390843       -2.3346262800
H                11.1166141676       32.9196992477       -1.5649963002
H                11.9957382266       31.4921190243       -0.8273784442
H                11.8548828670       33.1094236971        0.1022737542
H                13.1487526609       36.4237401506       -0.7469892597
H                12.1767126936       35.0197236934        0.0134624559
H                14.0742742764       35.0552161532        0.1465136503
N                 6.1770326110       31.9207392234       -6.0757783896
C                 6.6008708607       33.6439672840       -6.6050937991
C                 6.3662460362       33.6971454366       -8.1365235454
O                 6.1571498045       32.7541434173       -9.0895842188
C                 8.1606509138       33.6679608471       -6.3422905281
C                 8.5755130083       34.8840885650       -6.0316771001
C                 8.9308857113       32.9583026970       -7.8543196955
C                 9.9591114611       35.3935098197       -5.5785188135
H                 6.0778780363       31.3441857485       -7.1575448778
H                 6.0801849870       34.1290371065       -6.0495852492
H                 8.3924597900       32.8979217827       -5.5716312376
H                 8.2950366837       35.5629888528       -7.0511289704
H                 7.9751045896       35.2866293980       -5.2713746651
H                10.0112988971       33.0991762257       -7.3703684271
H                 8.6954909293       31.9878797665       -7.7507133493
H                 8.5999247939       33.5352957182       -8.4833346507
H                10.1154247968       36.2384558739       -5.6426147186
H                10.1836626046       34.6285268561       -4.9234510765
H                10.5428945706       34.7839952379       -6.6316329177
N                23.4734270144       30.1384685191        4.7192721930
C                22.0163298456       29.9998692086        4.9001918577
C                21.4247718871       28.6130284996        4.7639359704
O                22.1386272009       27.6927290522        3.5811976786
C                21.3042402246       30.9645182347        3.6582780341
C                19.7792115747       31.1139394714        3.6280374059
C                18.9733103436       29.9514294742        3.2976274066
O                18.2041465745       30.1989317850        3.6393767497
O                19.5739267859       28.7490250339        2.4570536249
H                23.4845069527       30.0746878590        4.1168368859
H                21.6062123784       30.6399486811        5.4829198792
H                21.8482924874       31.7862975149        3.3904980342
H                21.5631602381       30.2177353408        2.6322956184
H                19.6696130689       31.5554846186        4.5691436980
H                19.7548551150       31.8471548177        2.8358396989
N                25.4850020876       42.1630248862       -6.2981992987
C                25.3011698641       40.8886407581       -7.0811320223
C                26.4671654949       39.8948000373       -7.2688070263
O                27.5873328643       40.4697078522       -7.5120269095
C                24.7137514970       41.1210088481       -8.5284083696
H                25.2227756601       42.8845685849       -6.9019512022
H                24.5822578116       40.2652092772       -6.5745663435
H                24.5082775576       40.1845139226       -9.0228475288
H                23.8141073786       41.7679368704       -8.3569322740
H                25.4831372969       41.7551946585       -9.0155564525
N                26.3388314725       38.6306767443       -6.8761555632
C                27.5123488589       37.7242483080       -7.0666259324
C                27.8470998357       37.4176316997       -8.4413449131
O                26.9924023231       37.7550459822       -9.3221786324
C                26.7845661487       36.4278408767       -6.4054547209
C                25.4747324650       36.5504201170       -6.5774602521
C                25.0427172585       37.9061285143       -6.3083739729
H                28.3071222911       38.0013539911       -6.3738526104
H                27.2470751664       35.6023507537       -6.9841280961
H                27.1175113636       36.3163818137       -5.3622732691
H                25.2218069509       36.1965329648       -7.5917572699
H                24.9850504977       35.8925127835       -5.8764674064
H                24.2483169642       38.2236559052       -6.9726080972
H                24.9288878666       38.1280001262       -5.3064603067
N                25.3575733430       38.0348498397      -14.8669789779
C                24.5438535316       38.5530131312      -13.6335009775
C                24.2535901058       40.0762360202      -13.4799996875
O                23.2405376405       40.3442676793      -13.6150668452
C                25.1960990363       37.8887236826      -12.3597153651
C                24.3978964841       36.6832190312      -11.8426857583
O                23.4625947579       36.2153597083      -12.4372814951
N                24.7839147820       36.1366552807      -10.6502513039
H                26.1832291549       37.5894330427      -14.5260029422
H                23.6733273521       38.0209112297      -13.7662566431
H                26.2143178028       37.6237463368      -12.4682804194
H                25.0867599243       38.6754801334      -11.5626766999
H                24.2857669138       35.2750373912      -10.2656694341
H                25.5652367500       36.5281433130      -10.1814079016
H                24.8575148211       37.4485743869      -15.3319763630
H                24.9992718718       40.7086874264      -13.2703239314
H                14.1410093888       33.9801375027      -15.7013186744
H                15.5970607978       27.3880618930       -9.0233036044
H                17.3013924800       26.8303347905       -6.7790668031
H                17.6512728630       23.9624755873       -4.5028732840
H                13.8344644494       25.8436411285       -0.6134601308
H                13.8740986615       42.8388436834      -10.3689311150
H                 8.7979674053       41.0967951934       -8.1900848076
H                 5.9975094699       39.1699736904       -6.0143731612
H                14.1217919432       35.3802114324        3.0874725624
H                19.8758029284       34.6790294309        3.5725042581
H                12.5200848666       42.0489767075       -4.8812962356
H                14.0139293525       31.0530330865        0.7588068790
H                 6.8378022389       31.5939712516       -5.5594391683
H                 6.3496474389       34.5780515776       -8.6095233945
H                23.7386222125       30.9432342865        5.0226260563
H                20.6728156502       28.3295035512        5.3590623616
H                24.9625608475       42.1435643361       -5.5656172640
H                28.7120094458       36.9639697443       -8.6561057020
