 267 
 
N                10.3305234667       76.5016304033       -6.8477987188
C                10.9703250799       75.3399209524       -6.2222921855
C                11.5415550943       74.4569087778       -7.3250279823
O                12.4392275793       73.6772653725       -7.1197418733
C                10.0143054872       74.5327817272       -5.3135335165
C                 9.3874480259       75.2711562542       -4.1245847669
C                 8.6690210132       74.3322355934       -3.1145593378
N                 9.4153365116       74.1915215021       -1.8635479211
C                 9.8722778005       73.1546130701       -1.2247944749
N                 9.4214623206       71.9379839818       -1.3697620276
N                10.8243835992       73.3413632787       -0.3171512216
H                 9.3960587447       76.7628988709       -6.6007474188
H                11.8141012515       75.7058855153       -5.6433983685
H                 9.2418870568       74.1268669351       -5.9764855638
H                10.6215235393       73.7153146532       -4.9639945208
H                10.1733996123       75.7975310275       -3.5720335643
H                 8.7115939570       76.0543734817       -4.4727505820
H                 7.6524540734       74.7642158078       -2.8682154205
H                 8.4825157987       73.3779690177       -3.5510222097
H                 9.6804649154       75.1388287913       -1.5107060303
H                 8.6874728315       71.7150656762       -2.0404659010
H                 9.9740068713       71.1170950340       -1.0454734915
H                11.2404380936       74.2671227882       -0.1628845340
H                11.2322314662       72.5750848838        0.2265557129
N                11.0062487228       74.6444503873       -8.5195413078
C                11.3835081851       73.8148656309       -9.6097627241
C                12.4554017809       74.4335483566      -10.4518611578
O                13.6271785711       73.9850235368      -10.4171844755
C                10.1895724079       73.3269299498      -10.4301706470
C                10.6269580634       72.0050539634      -11.0886879300
C                11.4104289280       71.2115614286       -9.9561884288
O                12.5919207857       70.9464347087      -10.2167804381
O                10.7899216337       70.9670021603       -8.9026764430
H                10.1176513534       75.1542269430       -8.6220238321
H                11.8877383228       72.9465509396       -9.1398108349
H                 9.3784392975       73.1100955181       -9.7293047162
H                 9.8649905974       74.0797985164      -11.1352990173
H                 9.7580537111       71.4547997327      -11.4423105289
H                11.3175089360       72.2039991850      -11.9085676168
N                12.1109077462       75.4573969268      -11.2384668991
C                13.1647780133       76.3016467476      -11.8187446116
C                14.4754568959       76.1217078506      -11.0474404719
O                15.4923080651       75.7831204180      -11.6351773389
C                12.6790862900       77.7306827176      -11.7537064358
C                11.4429746083       77.9354888496      -12.6110284677
C                10.8220456393       79.3373309656      -12.3186260653
O                 9.6084096457       79.3688440497      -12.1244103865
O                11.6058932036       80.2773156655      -12.3213796773
H                11.2353078765       75.8874521775      -11.0920149237
H                13.3581636363       75.9852832340      -12.8591452095
H                12.4701108487       77.9732757029      -10.7096391481
H                13.4873532929       78.3976677641      -12.0702016742
H                11.7275651512       77.8753597754      -13.6693900917
H                10.6837876291       77.1737387465      -12.4094638080
N                14.3971542218       76.4719566720       -9.7572820532
C                15.5007136816       76.3055509704       -8.8382292860
C                15.9861896690       74.8392026880       -8.7875798905
O                17.0936831779       74.6115466624       -9.2314954888
C                15.1676197887       76.8581275417       -7.4245325074
C                15.7007756345       78.2760826243       -7.0867963975
C                14.9980908178       79.5303516509       -7.7309094208
O                15.0132555221       80.5351272935       -7.0691878389
O                14.5102614977       79.4075876842       -8.8520408429
H                13.5370073196       76.7822803403       -9.3681804961
H                16.3685793939       76.8530808909       -9.2482021316
H                14.0961482242       76.8316496743       -7.3053787484
H                15.6062926162       76.1430400698       -6.7096730013
H                15.6715341338       78.3806873980       -6.0051906249
H                16.7669876271       78.3210601512       -7.3937064965
N                15.2906169360       73.8613426426       -8.1894996799
C                15.9788176603       72.5894169243       -8.0844897396
C                16.2748506516       71.8548594972       -9.4166854038
O                16.9609925109       70.8514275248       -9.3850360369
C                15.3911275963       71.6243266937       -7.0109076240
O                14.1387743181       71.0654242382       -7.2634615310
H                14.2952005900       73.9038019096       -7.9417467418
H                16.9914773550       72.8417913830       -7.7133973770
H                16.0911049386       70.7721677718       -6.9491014253
H                15.3884791657       72.1572090151       -6.0482740957
H                13.4794972187       71.7689713532       -7.3287178542
N                15.8498348774       72.4864718049      -10.4911535403
C                15.9408104692       72.0792416804      -11.8794381291
C                17.3284286027       72.4357762067      -12.4400333467
O                18.1115826306       71.5774249182      -12.8237192817
C                14.8800290873       72.7485536210      -12.7576944038
H                15.1553468694       73.2066349129      -10.3500104144
H                15.8437983425       70.9847053744      -11.9544536164
H                15.0603149116       72.4881500301      -13.8163215542
H                13.8980286427       72.4270850570      -12.4750130167
H                14.9492083526       73.8392664611      -12.6627084531
N                17.6234086293       73.7376519980      -12.4681405944
C                18.9615184428       74.1234836919      -12.8317767423
C                19.9781156875       74.0629111944      -11.6781698363
O                21.1366508811       74.4323164457      -11.8595752508
C                18.9530472067       75.3962278981      -13.6964462956
H                16.9694185979       74.4412432216      -12.0926923595
H                19.3176096531       73.3079476073      -13.4553343873
H                19.9529701890       75.7046259805      -13.8980859661
H                18.4349204609       75.1750062384      -14.6502951335
H                18.4075192218       76.1906594652      -13.1969541736
N                19.5998318018       73.3896183043      -10.5770703064
C                20.5615849411       72.8189554402       -9.6085499039
C                21.3842047293       71.6859755960      -10.2329290581
O                22.5961596232       71.7355158763      -10.2261654126
C                19.8917734009       72.2277378187       -8.3686831284
H                18.6243342173       73.2781162282      -10.3680391052
H                21.2770916331       73.6081859282       -9.3172900871
H                20.6461843781       71.7045707306       -7.7818348935
H                19.4352020153       73.0028702569       -7.7707294834
H                19.1197436021       71.5063021064       -8.6625929748
N                20.6680452492       70.6626214508      -10.6910232449
C                21.2526733765       69.4786817676      -11.2981278266
C                21.9725664396       69.9133368473      -12.5740947808
O                23.1868358255       69.7550316625      -12.6856470413
C                20.2294612458       68.3849487792      -11.5843484045
H                19.6579008699       70.7348074291      -10.7293793163
H                22.0239017882       69.0628236065      -10.6456090402
H                20.7445101859       67.5488787315      -12.0473535072
H                19.7904919946       68.0482533108      -10.6550251050
H                19.4485204825       68.7438164875      -12.2479969015
N                21.2191041815       70.5228188725      -13.5052396630
C                21.7711984947       71.0367055184      -14.7450184474
C                23.0960874422       71.7739789034      -14.5353685913
O                23.8841653173       71.9081953393      -15.4680941656
C                20.7310753390       71.9461794134      -15.4387886887
C                21.0512057337       72.2777365055      -16.9079673377
C                20.0427350065       71.6536797285      -17.9340628740
O                19.8586996102       72.3079183254      -18.9763465895
O                19.5322300024       70.5680124093      -17.6372280037
H                20.2077464735       70.6175120565      -13.3713303876
H                22.0020331788       70.2057997152      -15.4169385289
H                19.7742646858       71.4309326757      -15.4114967333
H                20.6547881108       72.8688960066      -14.8549258673
H                21.0503836176       73.3625823581      -17.0595567036
H                22.0488343401       71.9118671085      -17.1651631852
N                23.3465184481       72.2678307346      -13.3034131634
C                24.6780537179       72.7390069153      -12.9987600105
C                25.5636903658       71.8650530613      -12.1288487922
O                26.6068765340       71.4941643131      -12.6640396292
C                24.6905094364       74.1988239143      -12.4897117607
C                26.1118196062       74.5438501098      -12.0245104119
C                24.2743518071       75.0771128975      -13.6670832801
H                22.6687448662       72.2238586436      -12.5640206797
H                25.1787859578       72.7357472813      -13.9661814145
H                23.9694592936       74.2939651160      -11.6754916388
H                26.1589808330       75.5802934612      -11.7785157842
H                26.3791784518       73.9535308573      -11.1436737602
H                26.8094304690       74.3047630617      -12.8179773768
H                24.2343126305       76.0953000636      -13.3802516955
H                24.9728139721       74.9292426951      -14.4914416257
H                23.2828870025       74.7595235859      -14.0101416467
N                25.3624340695       71.6492504580      -10.8265707184
C                26.3088497767       70.7272067061      -10.2178005447
C                26.7850987139       69.6849709825      -11.2461832946
O                27.9707519233       69.4001540360      -11.2862475574
C                25.7832713113       70.0009288379       -8.9517594046
C                24.3960629670       69.3812108541       -9.1293482881
C                24.2059306293       67.8271095143       -9.3311948479
O                24.9586782283       67.0495825103       -8.7298129102
O                23.2555751157       67.4995605588      -10.0497252513
H                24.4604919469       71.8200710991      -10.3847383497
H                27.2243455590       71.2988037814       -9.9313835284
H                26.5172205517       69.2250023061       -8.6847231302
H                25.7642095222       70.7254966627       -8.1166030935
H                23.7954628916       69.5973082674       -8.2407558645
H                23.8878303045       69.8495764742       -9.9715193738
N                25.8651657872       69.0634496314      -11.9860825304
C                26.1703694198       67.9811788212      -12.8917558697
C                27.3760441719       68.2708112094      -13.7587452166
O                28.2489614946       67.4368466909      -13.9703179040
C                25.0234786622       67.6761624688      -13.8803688025
C                25.3538060399       66.5287835394      -14.8494470118
C                25.1781461953       66.8707755776      -16.3879219347
O                25.2856324385       68.0468505853      -16.7431723941
O                24.9995973226       65.8847900768      -17.1084318006
H                24.8790771342       69.3313708888      -11.9320063488
H                26.3852088212       67.0852663626      -12.3095626551
H                24.1203051625       67.4595865621      -13.3132954424
H                24.8106524721       68.5808561483      -14.4683662731
H                26.3964500419       66.2234284754      -14.7273661821
H                24.7045151752       65.6807180381      -14.6654752594
N                27.3419713226       69.4552285419      -14.3394090664
C                28.4480604393       69.9347697473      -15.1372704426
C                29.7422472734       69.8738421096      -14.3523828305
O                30.6792154086       69.1885254768      -14.6981951905
C                28.1160563247       71.3699672931      -15.5561047746
C                29.3676490439       72.0787157384      -16.0566707359
C                29.0483701784       73.0914955253      -17.1527888813
N                28.6747169017       72.4045381571      -18.3723848198
C                28.8918549315       72.7686619146      -19.6257980947
N                29.5103002252       73.8899072119      -19.9294378463
N                28.4989800375       71.9544171039      -20.6071437976
H                26.6222269667       70.1294739017      -14.0758748794
H                28.5581001958       69.2805330678      -16.0015314205
H                27.3308363008       71.3161073242      -16.3191616420
H                27.6791270179       71.8821452014      -14.6984758312
H                29.8358699907       72.6131277474      -15.2147533859
H                30.0791056062       71.3641361961      -16.4310288505
H                28.2263806640       73.7483046070      -16.8284873473
H                29.9344629127       73.6974206423      -17.3326223038
H                28.1239661035       71.5518654180      -18.2301055659
H                29.9095510672       74.5043274699      -19.2282608311
H                29.7392524105       74.1531492100      -20.8894391386
H                27.9280424914       71.1285048007      -20.4202802204
H                28.5295244986       72.2446569670      -21.5787091779
N                29.8457165226       70.7099694016      -13.3033869962
C                31.1405018893       70.7455711439      -12.6605953576
C                31.4519701382       69.4903348742      -11.8527609278
O                32.4991842953       69.3724383969      -11.2618977289
C                31.3480553030       72.0391692608      -11.8688317899
O                30.3589618821       72.0678599656      -10.8762129103
C                31.3011948205       73.2425899065      -12.7972009344
H                29.0552984341       71.1215833369      -12.8393393720
H                31.8882569546       70.7212288662      -13.4580367144
H                32.3480468822       71.9558358135      -11.4028956805
H                30.4669665907       72.8647687968      -10.3514411673
H                31.4824439591       74.1543106816      -12.2485550346
H                32.0700736906       73.1590988739      -13.5795940367
H                30.3306719330       73.3109469948      -13.2799459669
N                30.5830905496       68.4837788802      -12.0106295254
C                30.9527633049       67.1578503206      -11.6215324001
C                31.8452069857       66.5461261909      -12.6979770102
O                32.9046502885       66.0084418902      -12.4276773354
C                29.7343323128       66.2530931724      -11.4841734683
C                30.1772266421       64.7975795653      -11.3175135169
C                28.9770442469       63.8747717656      -11.1522543072
N                28.1917754455       63.7818288703      -12.3770892068
C                26.9123790333       64.1079160563      -12.5355297505
N                26.2889482556       64.9218445274      -11.6923101248
N                26.2396486208       63.5835683885      -13.5558341993
H                29.6100455447       68.6742749917      -12.2189235280
H                31.5271671202       67.1932590815      -10.6795536895
H                29.1506062542       66.5746529795      -10.6222856481
H                29.1259930481       66.3631550481      -12.3791094587
H                30.7648406995       64.4772016758      -12.1773353697
H                30.8122185955       64.7147554946      -10.4298028477
H                29.3304141434       62.8741885900      -10.9070378327
H                28.3596456369       64.2258266773      -10.3273517682
H                28.6366734052       63.2365016415      -13.0965261131
H                26.7585806759       65.3176198559      -10.8864850882
H                25.2992851976       65.0908411000      -11.7500400866
H                26.6461588432       62.8901153698      -14.1571681955
H                25.2929942958       63.8801529270      -13.7636224771
N                31.3333792095       66.5697148362      -13.9057598364
C                32.1386398618       66.1014369967      -15.0223531217
C                33.5630792848       66.5999782060      -14.8350265517
O                34.4993551749       65.8288414965      -14.8580482181
C                31.5499466297       66.5374613038      -16.3790206059
C                30.7162443450       65.4254973659      -17.0173544545
C                29.4987912300       65.0391531513      -16.1467449177
C                28.9981399998       63.6296451741      -16.4295496804
N                28.1589124179       63.5203328586      -17.6373182225
H                30.4931287538       67.1150903575      -14.1069384666
H                32.1922048669       65.0049024264      -14.9959794529
H                30.9438407971       67.4355663367      -16.2374570692
H                32.3579590650       66.7778511541      -17.0522935925
H                30.3761455867       65.7513345966      -18.0046510850
H                31.3491400794       64.5561746520      -17.1505813748
H                29.8177234852       65.0672817586      -15.1078977989
H                28.7071074744       65.7662043759      -16.2705848626
H                29.8489064960       62.9482729929      -16.5181775666
H                28.3788407834       63.3318234559      -15.6023028159
H                27.6769591806       62.6228232425      -17.6666491021
H                27.4519497860       64.2640985956      -17.6803475804
H                28.6345267151       63.5200600120      -18.6032416344
H                10.8117231944       77.2412593846       -6.6706101411
H                33.7369648058       67.5741087451      -14.6906883431
