 252 
 
N               -12.5347022617       82.0563581612        5.1994034300
C               -11.7783868731       80.8911352767        4.8240347383
C               -11.6790392637       80.7225236348        3.3074905358
O               -10.5706569384       80.6957712566        2.7579556009
C               -12.4036578052       79.6212740774        5.3922318815
C               -11.4087139233       78.4334667649        5.2828716420
C               -10.8465762253       78.1151320178        6.6996161769
C               -11.9950332208       77.1945297463        4.5829799799
H               -13.0262312013       81.9785499512        6.0834802074
H               -10.7424341677       80.9678515160        5.2055388239
H               -12.6660168237       79.7637271121        6.4493197146
H               -13.3385986822       79.3592779063        4.8916356778
H               -10.5622606939       78.7455585677        4.6684429719
H               -10.1301188881       77.3078575090        6.6370289082
H               -10.3569659036       78.9885787864        7.0894266323
H               -11.6586400151       77.8201674680        7.3620772142
H               -11.2438393037       76.4321941301        4.4669803601
H               -12.8234914949       76.7884557277        5.1776993565
H               -12.3726711265       77.4585246158        3.5996996337
N                -7.6741292700       79.9703132922       11.4082466157
C                -8.9672137127       79.6550066630       10.9128714914
C                -9.3242999763       78.1868091124       10.9264714374
O               -10.2085186422       77.8128027579       11.7110663814
C                -9.0783746546       80.1905985245        9.5143363853
C                -8.8825987772       81.7097470677        9.5669943111
C               -10.1563114966       82.5164009171        9.9976788586
N               -10.6575702118       83.4083260441        8.9086537596
C               -11.7891182740       83.6999658350        8.4895055870
N               -12.9688048429       83.1655505872        9.1514892091
N               -12.0029254886       84.3702521865        7.3975040119
H                -6.9573383179       80.0823472433       10.7008746950
H                -9.6974541456       80.1368405884       11.5953002699
H                -8.2956490490       79.7528195969        8.9068383856
H               -10.0496717031       79.9281184593        9.0972737602
H                -8.0800666804       81.9490851292       10.2449262599
H                -8.5861640870       82.0616153286        8.5651090298
H               -10.9587925389       81.8134760153       10.2198539630
H                -9.9548197737       83.0794555257       10.8952160022
H                -9.8506336349       83.8819231970        8.4156248850
H               -12.8643044847       82.4735414245        9.8296362536
H               -13.8260096481       83.2845993968        8.7283547641
H               -11.1602404088       84.8397250943        6.9654892765
H               -12.8704640878       84.7604994359        7.1765905972
N                -8.7958272592       77.3968789088       10.0039500336
C                -9.2009668008       75.9922189518        9.9045453121
C                -9.6905604882       75.4329615011       11.2793407086
O               -10.7173489478       74.7620988714       11.3627237659
C                -8.1434848627       75.0173857673        9.3634982260
C                -7.6246122181       75.1898658637        7.8759821918
C                -8.3948684187       74.4829760474        6.7358800602
N                -8.6641553387       72.9960599989        6.7966923560
C                -8.7529019893       72.1491526585        5.7233734462
N                -8.0867857811       72.3926201967        4.5799725700
N                -9.4835410921       71.0391422056        5.8040265680
H                -7.9780842468       77.6750497290        9.4784774677
H               -10.0838773884       75.9514495908        9.2367117596
H                -7.2761050512       75.0886283680       10.0231161118
H                -8.5472710685       74.0144145416        9.4752071905
H                -7.6034838664       76.2259884037        7.6203326601
H                -6.5951935733       74.8125438169        7.8632483587
H                -9.3889168247       74.9461966825        6.6683400285
H                -7.8596866663       74.6920407269        5.8223230786
H                -9.1881854414       72.7066832248        7.5884061322
H                -7.7162483526       73.3488507946        4.3654071043
H                -8.2341635433       71.8158847686        3.8078624408
H                -9.5899997052       70.5032933134        6.6731392593
H                -9.3943728420       70.4222259823        5.0203209243
N                -8.9002292170       75.6504582403       12.3324224184
C                -9.4420843537       75.3503531823       13.6212465962
C               -10.7851903877       76.0533963287       13.9300103569
O               -11.7962875804       75.3856966381       13.9180584171
C                -8.3825995015       75.5748454498       14.6782325259
C                -7.5139618657       74.3130659899       14.8069587158
C                -6.0059606636       74.6732591119       14.9727884781
O                -5.6078474739       74.9470834893       16.1403397899
O                -5.3489701985       74.6712520382       13.9175694426
H                -8.1065765957       76.2472099129       12.2784401531
H                -9.7402280167       74.2764009712       13.6273563726
H                -7.7679936080       76.4283087603       14.4111536193
H                -8.8367549893       75.7964644246       15.6564782009
H                -7.8211700733       73.7034858980       15.6657947414
H                -7.5811144491       73.7173815694       13.9020327910
N               -10.7419120464       77.3350766699       14.2729554343
C               -11.8876887241       78.1246271305       14.6720249688
C               -13.1450342907       77.6997820704       13.9509594949
O               -14.2264413703       77.6617406212       14.5726010253
C               -11.7109854750       79.6009930967       14.3087006959
C               -10.5452704294       80.2670993388       15.0423653199
C               -10.1656845893       81.6492763119       14.3800113694
O               -11.1282224747       82.2599368619       13.8643619884
O                -8.9684044322       82.0112634418       14.4419571468
H                -9.8650287566       77.8391360627       14.1748285680
H               -12.0454282918       78.0297436727       15.7548934207
H               -11.5192213576       79.6774114873       13.2357448176
H               -12.6230633210       80.1488222954       14.5249014086
H               -10.7915607449       80.4455107346       16.0931645642
H                -9.6370269148       79.6608097224       15.0151263826
N               -13.0272505546       77.4664480312       12.6572953011
C               -14.1544046445       77.1073847768       11.8163070246
C               -14.5642708803       75.6158024374       12.0139103372
O               -15.6324403855       75.3281484829       12.4614342705
C               -13.8930013620       77.5247590212       10.3832447240
C               -15.0764422225       78.1270889174        9.5802874732
C               -14.7876227896       79.5189133909        8.8030055103
O               -15.1764649270       79.6034039782        7.5803836388
O               -14.2425938316       80.4178475395        9.4528713450
H               -12.0965876934       77.4891821425       12.2455245807
H               -15.0155913042       77.6703902933       12.2053804151
H               -13.1134197247       78.3133087860       10.4141286223
H               -13.4618966035       76.6837533659        9.8178791903
H               -15.4324543159       77.4135543201        8.8202422024
H               -15.8941097670       78.3514583877       10.2365935571
N               -13.6431371062       74.6766664991       11.6479158724
C               -14.0266419292       73.3050140685       11.8554624846
C               -14.7889643110       73.1105924559       13.1808832240
O               -15.7888976066       72.4388984145       13.2621251370
C               -12.8523656941       72.3732255004       11.8198626383
O               -13.3454925494       71.2048715032       11.1899060063
H               -12.6610799035       74.8993958857       11.5407456831
H               -14.7057296553       72.9977093979       11.0578752346
H               -12.0283019551       72.8141593392       11.2291702395
H               -12.4624368376       72.1628950882       12.8304404089
H               -12.6890696942       70.4746330318       11.3127617625
N               -14.1881281434       73.6954798699       14.2060578364
C               -14.8842279503       74.0288021871       15.4242811021
C               -16.3572579192       74.3412522218       15.2789324930
O               -17.1922098281       73.4950383459       15.5710604894
C               -14.2370861980       75.1722026907       16.1991167270
H               -13.3636201314       74.2929433997       14.0305623794
H               -14.8709109850       73.1148360041       16.0668816727
H               -14.7790224832       75.3387314106       17.1292825580
H               -13.2039595397       74.8999910817       16.4556732378
H               -14.2134238197       76.0810291724       15.6319261819
N               -16.7265044213       75.5943926766       15.0248931869
C               -18.1251436058       75.8927171013       15.3840828295
C               -19.0790947599       74.9019610804       14.6817479849
O               -20.1228022178       74.5253402390       15.2096770047
C               -18.5129361645       77.3016402509       15.0318768169
H               -16.0878696517       76.3326100766       14.8184844522
H               -18.2584053853       75.7308986744       16.4524366051
H               -19.5475919936       77.4761050678       15.2835877322
H               -17.8824521564       78.0143167950       15.5564742973
H               -18.3852193110       77.4710568256       13.9475213493
N               -18.6694865362       74.5822439668       13.4244638786
C               -19.3353295376       73.6044877139       12.5626290642
C               -19.7341714424       72.3644801808       13.3493789885
O               -20.8798763656       72.0610719858       13.6651378525
C               -18.4009671886       73.2094729521       11.4088189465
H               -17.7366784451       74.8614364680       13.1372305275
H               -20.2696236896       74.0442250552       12.1931433736
H               -18.8434291532       72.3703852786       10.8737200399
H               -18.2987647000       74.0487207720       10.7254497394
H               -17.4311520505       72.9327285628       11.7826625324
N               -18.6513646838       71.5861202811       13.6383100092
C               -18.8672757885       70.3878127523       14.4026853664
C               -19.9046279918       70.5653185653       15.4957246588
O               -20.7479732207       69.6871460547       15.7029844602
C               -17.5059329524       70.0639218982       15.0641755183
H               -17.7208440398       71.8782838936       13.4910492298
H               -19.1769247397       69.5541794263       13.7534583218
H               -17.6366342956       69.2250742484       15.7743163555
H               -16.7781534312       69.7814852420       14.3328100326
H               -17.1663537929       70.9266628434       15.6250214445
N               -19.6683680038       71.6756800884       16.2204274523
C               -20.3381664735       72.0437544200       17.4042272171
C               -21.8223336614       72.2876139993       17.1681745884
O               -22.6898700614       72.0964244115       18.0336118306
C               -19.6851939521       73.2761118911       17.9957945212
C               -20.1670364396       73.4437969068       19.4470426249
C               -19.6869995524       74.7300330452       20.2691204078
O               -18.7270851557       75.4769155802       19.7506477888
O               -20.2935180837       74.8728268703       21.3728815407
H               -18.9140775858       72.2700148513       15.9111291583
H               -20.2770580856       71.2031176380       18.1384181156
H               -18.5968933422       73.1686805015       17.9903143979
H               -19.9516356920       74.1496692826       17.4210790522
H               -21.2464216183       73.4615254275       19.5024963579
H               -19.8199151055       72.6026375374       20.0615627438
N               -22.1096795452       72.7179166067       15.9256315596
C               -23.4760895604       72.9245565374       15.5408263271
C               -24.1167222094       71.6909544963       14.9248312929
O               -25.2211911480       71.3065580609       15.2176606712
C               -23.5264289183       74.0352457761       14.5316104019
C               -24.9348388410       74.1474367135       13.9449378275
C               -23.0863847982       75.2996564532       15.2406879613
H               -21.3922035716       72.9302410432       15.2888331690
H               -24.0665719431       73.1839071615       16.4334198449
H               -22.8225085107       73.8114211351       13.7287681112
H               -25.0099240453       75.0399548533       13.3095714795
H               -25.1746347318       73.2838568534       13.3496814966
H               -25.6724613078       74.2416389586       14.7413310112
H               -23.0511248544       76.1512842817       14.5302034201
H               -23.7899500879       75.5774686357       16.0245776874
H               -22.1056102161       75.1981582134       15.6694134405
N               -23.3710584116       71.0932513219       13.9851150444
C               -23.8748108304       69.8114452244       13.5358129905
C               -24.2893857939       69.0094763367       14.7621554875
O               -25.2768778870       68.3142741070       14.7687814635
C               -22.8633278118       69.0308220285       12.6975931333
C               -23.6343580185       67.9423334324       11.9255891953
C               -22.8169465537       67.1298123147       10.8044911714
O               -21.6137642060       66.8560496977       10.9831982482
O               -23.5058669486       66.7845469896        9.7907912914
H               -22.4266381706       71.3614092014       13.8061742347
H               -24.7774747248       69.9797324886       12.9336384147
H               -22.3860278321       69.7079909296       11.9740006421
H               -22.0864531146       68.5865135147       13.3064415571
H               -24.0364288782       67.2273038666       12.6235779966
H               -24.4689478787       68.3953499930       11.3793799442
N               -23.4533830025       69.1518165997       15.7774884648
C               -23.7080744443       68.5822442954       17.0644228904
C               -25.0242486782       69.0913640612       17.5993148709
O               -25.9169021261       68.2891727241       17.9226261929
C               -22.6122130768       68.8510970294       18.1270219963
C               -21.7853679617       67.5816515843       18.3730933115
C               -22.7350938779       66.3929139614       18.8874982787
O               -23.3615845131       66.6155233749       19.9579316491
O               -22.8008289745       65.3125609535       18.2106487492
H               -22.5299253105       69.5747019463       15.6489559919
H               -23.8289130029       67.4941425604       16.9676810583
H               -21.9775630269       69.6641707863       17.8081355280
H               -23.0861822694       69.1267461770       19.0761172717
H               -21.2828210490       67.2691414686       17.4660976260
H               -21.0507655151       67.7669084752       19.1598126058
N               -25.1943817028       70.4131292263       17.7470103640
C               -26.4223600645       70.7813916495       18.4798823233
C               -27.6055951228       70.0970378765       17.8015745628
O               -28.3869350414       69.4074344046       18.4213526936
C               -26.6061413343       72.2845681121       18.5888254633
C               -27.1737903857       72.6077278421       19.9517160595
C               -27.1406869497       74.1168163926       20.2037977830
N               -27.5703893089       74.4247211065       21.5667255857
C               -28.7549850402       74.9689831967       21.9889474005
N               -29.7033992189       75.3719213123       21.1312827013
N               -29.0231173896       75.0673895493       23.3069677191
H               -24.4092158866       71.0433066981       17.7568373767
H               -26.3552389140       70.3313695611       19.4825567372
H               -25.6147114955       72.7575733527       18.5072493385
H               -27.2295238338       72.6578583203       17.7881409459
H               -28.2031734435       72.2468119021       20.0326057554
H               -26.5893202128       72.1234676951       20.7311917204
H               -26.1209884958       74.4874358175       20.1214726179
H               -27.7626242303       74.6536910032       19.4908061880
H               -26.9733580021       74.0951227322       22.2895722550
H               -29.5838298959       75.2664989373       20.1324089307
H               -30.5010171419       75.8796806837       21.4448663394
H               -28.2801935508       74.9280126684       23.9748183511
H               -29.7711359748       75.6817763216       23.5732013122
H               -11.9818679437       82.7628410878        5.2719023348
H               -12.5103105463       80.6337400949        2.7587596931
H                -7.7078187562       80.7456915224       11.8639368818
H               -27.7533884678       70.2113998123       16.8191904858
