 266 
 
N                65.5957660453       88.2263488836      106.4847405456
C                66.3662784130       87.9016676454      107.4560342582
C                65.5939415180       88.0403474173      108.7879958279
O                64.6969532355       88.9129313158      108.9102937425
C                67.6432422276       88.6382073949      107.5307326211
C                67.3891451968       90.0015905189      107.6974689875
C                68.5900752557       88.1351017764      108.5294759609
H                64.9752605075       88.9922146676      106.6311204704
H                66.6452553278       86.8482358245      107.3985807294
H                68.1625121449       88.5274609693      106.5864668704
H                68.2732999824       90.6370445467      107.7068998113
H                66.7623562312       90.4248996741      106.9456412848
H                66.9046391241       90.2109125083      108.6310645847
H                69.5264400467       88.6605942952      108.5522310342
H                68.1913977786       88.2030026944      109.5088581799
H                68.8499231442       87.1042531215      108.3822066030
N                65.9484223524       87.1951637912      109.8510699318
C                65.2437094640       87.0350236783      111.0525817204
C                66.1347915144       87.2734947139      112.2161519803
O                67.1920135752       86.8005772291      112.2694693688
C                64.5553008771       85.7191329502      111.1916524839
C                63.9052930567       85.3257924442      112.4490125924
C                63.4085661392       83.9953116475      112.5867666965
O                64.0045986401       83.0290126148      112.2220431827
N                62.1449891237       83.8810034691      113.0425186444
H                66.6931119773       86.6502259870      109.7706261712
H                64.4510228983       87.8025476463      111.0451006387
H                63.8334153210       85.5924477343      110.3992532604
H                65.2824807774       84.9629643786      110.9550562128
H                64.6161568521       85.5361739968      113.2545232844
H                63.1385550321       86.0774241606      112.6648250994
H                61.6246353690       84.6248719256      113.3434027940
H                61.7147409554       82.9918314477      113.0750224810
N                65.6244918308       88.0894175026      113.2316448417
C                66.3976556332       88.4730304465      114.3483009223
C                66.8367926782       87.2956563943      115.1624895595
O                66.1201233109       86.4055693414      115.4312496915
C                65.7286362721       89.5069940166      115.1893635683
S                66.7035645496       90.3534685277      116.5363375639
H                64.7262557218       88.3880389152      113.2314209683
H                67.2854414934       88.9520109945      113.9406577965
H                65.3001941453       90.2761988162      114.5665182565
H                64.8603411925       89.0523957420      115.6303633300
N                68.0669080891       87.3219375185      115.6757100370
C                68.5247637689       86.4628687654      116.6846375585
C                68.2316893357       86.9576089098      118.1179334231
O                67.9180033904       86.1923471830      119.0324949955
C                69.9255639561       86.0607506130      116.4360624630
C                70.2466541452       85.4988455510      115.0991394022
O                69.3588750895       84.7669162233      114.5450094319
O                71.3028051258       85.7604050704      114.5666551852
H                68.7387058948       87.9805690229      115.3953148445
H                67.9067248658       85.5815241993      116.6067818228
H                70.5574409917       86.8988288867      116.6456132642
H                70.2408453728       85.3503691710      117.2121030787
N                68.3345425703       88.2652392505      118.3327541438
C                68.3165465660       88.9086281018      119.6650786595
C                67.1236389723       88.6097198079      120.5139727003
O                67.1295300611       89.0876392967      121.6434451255
H                68.3502654820       88.8579008428      117.6388018899
H                69.1373463640       88.7799415161      119.9628694526
H                68.3513071729       89.9128912518      119.4491551227
N                66.0937098512       87.9481390502      120.0699987575
C                64.9875911331       87.6044378907      120.7922286600
C                63.6616139080       87.5683522429      120.1758093284
O                62.9895918319       86.5475553956      120.1144400285
H                66.0623671148       87.6253700304      119.1332103341
H                65.1507147051       86.6254949201      121.2389079595
H                64.9623951010       88.2397903890      121.6606280998
N                63.1940522284       88.7502429706      119.6275880155
C                61.9072349373       89.0345584919      119.1072509231
C                61.4365675328       88.0964659284      118.0122227828
O                60.2791358723       88.0117198624      117.7265362620
C                61.7572171903       90.4052731795      118.6874088313
S                62.2995436773       90.9723819905      117.0604531942
H                63.8112088326       89.5073153770      119.5408905311
H                61.2385663371       88.7982668185      119.9432796803
H                60.7028545813       90.7145450997      118.7877810972
H                62.2150238302       91.0654904758      119.4343893125
N                62.4118750706       87.4511465654      117.3668207454
C                62.3121054978       86.4306146051      116.4388836445
C                61.2936648466       86.8686764813      115.2601358733
O                60.3933669171       85.9921494347      114.6772108347
C                61.7645349323       85.1409608766      117.0948594268
C                62.9636308234       84.3632969159      117.6046394694
O                64.0475263408       84.9317324753      117.7266020854
O                62.7939264685       83.1108571133      117.8456988504
H                63.2871836691       87.6043883865      117.5030235398
H                63.1560142283       86.2436795269      115.9532394903
H                61.1865537771       85.3350018776      117.7619319929
H                61.4361128928       84.5951022345      116.4250884975
N                61.4842871609       88.1261637703      114.8544510609
C                60.6193675276       88.6772461431      113.8218717811
C                61.4610525984       88.8083013586      112.5538293225
O                62.6811268347       88.8331263655      112.5725957755
C                60.0215503762       90.0025684246      114.2677324881
C                58.7228931294       89.7176680903      115.0143868368
C                57.7278547371       90.8663344645      114.9848028986
O                56.5278119794       90.6211363137      114.7385088206
O                58.2246566344       92.0554144239      115.2101108392
H                61.9628402068       88.6722623299      115.2470438231
H                59.8861135276       88.0358537008      113.6028804059
H                60.6207524859       90.4891891193      114.7991501309
H                59.8458758239       90.5606566753      113.4904675587
H                58.2339832688       88.8934412521      114.6507937709
H                58.9428228648       89.5324106384      115.9581712564
N                60.7666715505       88.8216725898      111.4018110341
C                61.3490985555       88.7170160127      110.0876894986
C                61.4200445743       90.1349613850      109.5493503517
O                60.4283345842       90.8489191753      109.3402541561
C                60.5907544385       87.8620056592      109.1872722426
C                60.8240404762       86.4146196790      109.5257332839
C                60.1007708616       85.6366615682      110.3035337923
C                61.9496029983       85.5913198315      109.0335367571
N                60.6031871278       84.3461149777      110.3167478060
C                61.7650916486       84.2957794662      109.5040263259
C                62.9751467690       85.8006339255      108.1145915407
C                62.5778916636       83.3917522505      109.1996450094
C                63.8252607806       84.7297718217      107.7717478855
C                63.5741489996       83.4463280222      108.3605631298
H                59.9083378790       89.0119523328      111.3543347640
H                62.2966016546       88.4670220915      110.2186897486
H                59.6393782245       88.0247491840      109.2826296992
H                60.7719648404       88.0167981676      108.2751269489
H                59.3843591701       85.9054344552      110.7973387219
H                60.2365764477       83.7107085644      110.7848622191
H                63.1031135924       86.6639909085      107.6858754733
H                62.4052833036       82.4346087041      109.6221936308
H                64.4521152669       84.8141141639      107.2548242755
H                64.1800405353       82.8961916669      108.0840541303
N                62.6107286943       90.4247790579      109.1046467551
C                62.7611972667       91.7923357585      108.2689611492
C                63.1110762813       91.4946757948      106.8519698553
O                63.8082937657       90.4739238167      106.6085800969
C                63.8725071521       92.5569661577      108.9133506103
C                63.5921707028       92.7603694176      110.3568470070
C                64.2848458020       91.8669847705      111.2000543189
C                62.6878766919       93.6320740433      110.9440364199
C                64.1031847731       91.9773795000      112.6306740119
C                62.4429889629       93.8292939171      112.2900176848
C                63.1865204086       92.9327085361      113.1566130162
H                63.2942032347       90.1252099738      109.1062396148
H                61.8541965570       92.3360358897      108.3101629119
H                64.6878084213       92.1922016045      108.7509841002
H                63.7502103239       93.5074262071      108.5471097713
H                64.8022746101       91.2959710527      110.9240965000
H                62.2713005361       94.1931397965      110.3243246077
H                64.5390743877       91.4902726322      113.1927593556
H                61.9673202350       94.3745500168      112.5697173873
H                63.0180810628       93.0531366369      114.0112474129
N                75.3618580030       86.6501318784      112.6051628191
C                74.1458366659       86.8715820554      113.2667987658
C                73.5222007488       88.2455626746      112.9706505199
O                74.1105184447       89.1078771612      112.4740438028
C                74.2408784643       86.5682870102      114.7071085333
C                74.5548484446       85.1814082373      115.1019899266
O                74.2643234351       84.3219463035      114.2327428223
O                75.0829395031       84.9650443818      116.2009341327
H                76.1105575381       86.5682604500      113.1959928635
H                73.4599153971       86.1242334903      112.8559513862
H                74.9533958915       87.2415921172      115.1447115907
H                73.3180072205       86.8673561088      115.2168194563
N                72.3099627620       88.3855780471      113.3751673132
C                71.5348332958       89.6021102488      113.1496477351
C                70.7295240750       89.9785505718      114.3903781766
O                69.6038999516       89.2806667958      114.6316883023
C                70.8232667386       89.8658537091      111.8087126711
C                69.8737179706       90.9531745383      111.8355588076
C                70.5566336281       92.2155754329      111.3930789222
C                68.6145536168       91.0636897096      112.2874090947
C                69.8591333230       93.4302630297      111.4197548929
C                67.9117677130       92.2617653954      112.3157248447
C                68.5475206610       93.3762371847      111.8928744502
O                67.9424824733       94.6311071186      111.8705043769
H                71.7133563767       87.6907114166      113.6970229878
H                72.3464938885       90.3396548421      113.0440762681
H                71.2441255840       89.6416820847      111.1162649757
H                70.1803146991       88.9827137887      111.8120890140
H                71.3120994978       92.0496798247      111.1915908570
H                68.2758098482       90.3559124146      112.5879789997
H                70.2784851878       94.1749246200      111.1305299769
H                67.0196684162       92.2501265944      112.6173182651
H                67.1356202811       94.5044861847      112.1767618149
N                70.9972441683       90.9817700452      115.1023160084
C                70.1644465124       91.4755036225      116.2059934248
C                69.5023412182       92.6857329522      115.7107166873
O                70.2030456644       93.6135139077      115.1345761856
C                71.2282455293       91.8968623835      117.3527765982
C                72.0201439332       90.5480739205      117.7507963760
C                70.3362453534       92.3088699672      118.5458237945
C                73.3757182215       90.5249936567      116.9321595650
H                71.7465811234       91.4252290358      114.9144826042
H                69.7302507668       90.9629337760      116.4839933194
H                71.8760172581       92.6717417211      117.0932428094
H                72.3121721811       90.7364379496      118.6657026731
H                71.5447546212       89.8304258696      117.6182650435
H                70.9310277702       92.4942740142      119.3137825415
H                69.8879087571       93.1186532077      118.3596908649
H                69.7240797129       91.6289173144      118.8128796552
H                73.8140788223       89.6858643126      117.2863941010
H                73.2266107528       90.4212517973      116.0491332506
H                73.9189163770       91.3041615894      117.1604418822
N                68.3325639702       92.9251284872      115.8310430420
C                67.6823634741       94.1342256316      115.2087441135
C                67.8213780674       95.2509772665      116.1351544351
O                68.6117704940       95.1743734750      117.1496158497
C                66.1246605385       93.7705232547      115.0487171853
S                65.0667660954       93.4994539830      116.6311196577
H                67.7861109796       92.3251192062      116.2330673098
H                67.8862677309       94.1719511485      114.4643122721
H                65.7123424743       94.4842913216      114.6054054596
H                66.0148076362       92.9996056399      114.4582659175
N                66.2140815519       94.5366481014      119.8303475969
C                66.9252308763       93.5378943198      120.4586790438
C                68.3480465046       93.8506248321      120.7810096216
O                69.0425813951       93.0981296760      121.4177121959
C                66.8150678250       92.2493528729      119.7282080514
S                65.2258964892       91.6878578273      119.4158904798
H                66.1413362878       94.3946912564      118.8307182256
H                66.4286487575       93.4094994582      121.4094344952
H                67.3501388171       92.3481770952      118.7998186607
H                67.3823076798       91.4809285905      120.2410521372
Zn               64.6459369096       91.3863021368      117.3205349139
N                72.4558723962       84.4316482567      109.9202650313
C                71.3241856806       84.1618236729      110.5365466114
C                70.3704376380       83.3995470823      109.7071056994
O                70.6513521356       83.0337967399      108.6118535531
C                70.7390026922       85.3330042523      111.1438510507
H                73.0995056247       85.1288426162      110.3650021463
H                73.0951648856       83.6420344433      109.6893236629
H                72.2998237965       84.8649100081      108.9723138533
H                71.6278690469       83.5061575123      111.3777756989
H                69.8530178444       85.1196920514      111.7084689067
H                71.3838580703       85.8547795023      111.8186081402
H                70.4532374688       86.0325455552      110.4019858697
N                69.2227662397       83.1999152910      110.2967191903
C                68.1352428634       82.5550092192      109.4209838894
C                67.6504551858       83.5218837910      108.3152789521
O                67.2445715854       84.7141768176      108.6872721726
C                67.0019069776       82.0228783790      110.3311543315
C                67.3763513446       81.0605706186      111.3238391040
C                66.4480137150       80.9023208290      112.4216943965
N                66.5477112799       81.9605017962      113.4447304429
C                65.7924200364       82.1682222683      114.4864723293
N                64.6083528293       81.2939886045      114.6260436614
N                66.0134209426       83.1471445343      115.3709899435
H                68.9209825608       83.3839251923      111.1149095561
H                68.6119437634       81.7030402050      108.8460212628
H                66.6233609975       82.8416797041      110.8911419357
H                66.3108982490       81.6489752410      109.7475186398
H                67.4485670414       80.2248657462      110.9194240095
H                68.2183747456       81.2025158728      111.6567225956
H                65.4947473314       80.9730124697      112.0375032235
H                66.4615912850       80.0478961874      112.8477789534
H                67.1746190164       82.4838192411      113.3579273931
H                64.5319556249       80.6691639736      114.0712834807
H                64.2088128563       81.4826341214      115.2903224630
H                66.6392380531       83.5719805626      115.2327822988
H                65.4442307735       83.1836494913      116.0290275406
H                66.0930265640       88.4540612671      105.7699825118
H                62.7936707366       92.0988523993      106.1210633286
H                75.3106681249       85.8877034303      112.1296815283
H                67.2993235619       96.0910221648      115.9875615416
H                65.3794324114       94.5676754839      120.1656058761
H                68.7551362533       94.7081505904      120.4664821818
H                67.6541654015       83.2298797310      107.3588690696
