 155 
 
N                54.2415161828       49.3380951252      207.3320138368
C                55.2146461770       48.8435444943      206.3926977240
C                56.2765432832       47.9962587601      207.0511645944
O                56.6016356689       48.0900730633      208.2251658631
C                56.0127595972       50.0456822252      205.8768594932
C                55.5174191400       51.2194615480      206.6872216761
C                54.6302323366       50.6383119307      207.7892582125
H                54.7240189472       48.2822873702      205.5946242798
H                57.0818272394       49.8877363259      206.0065564566
H                55.8278204271       50.1758555550      204.8116065211
H                56.3280353626       51.7992233226      207.1247487420
H                54.9358408349       51.9022358082      206.0704641804
H                55.1872396121       50.5488566268      208.7285198332
H                53.7731176408       51.2850596896      207.9827492425
N                56.9048972773       47.1910848034      206.1737155147
C                58.0210362447       46.3632866775      206.5802201738
C                59.3538552759       47.1233217909      206.5350027684
O                59.5420031186       48.1585400878      205.9259135545
C                58.1540899406       45.1080356518      205.7054451788
O                59.2761912632       45.1903011002      204.8120161151
H                56.6360435678       47.2262155459      205.1966019316
H                57.8120500748       46.1007779280      207.6242914261
H                58.2797898342       44.2149683704      206.3274168918
H                57.2309861590       44.9964362825      205.1301035677
H                59.0707768584       44.6005509862      204.0783667886
N                60.2991024651       46.5414401788      207.3225747286
C                61.5442380815       47.2825991801      207.3990715663
C                62.1770672079       47.2828280619      206.0137633765
O                62.5264786834       48.3574555165      205.5491323371
C                62.4990947366       46.9030098974      208.5311698684
C                62.0410388968       47.2296750615      209.9779186269
C                61.4140729089       46.0315112763      210.7484032230
C                59.9494881987       45.7509701727      210.3241370495
N                59.5923007064       44.3130881595      210.4785494344
H                60.3195463431       45.5310164800      207.3722725021
H                61.2519358925       48.3282607884      207.5587448827
H                62.7641097864       45.8464142337      208.4600538383
H                63.4109894970       47.4679080369      208.3319125740
H                62.9249606623       47.5463038658      210.5264566415
H                61.3445832417       48.0659113460      209.9609935755
H                62.0377608767       45.1591435792      210.5590613115
H                61.4623762753       46.2508427456      211.8115478069
H                59.2779006232       46.3682507546      210.9198972226
H                59.8224321903       46.0407368679      209.2849919444
H                58.6167377863       44.1386622967      210.1992204597
H                60.2197257685       43.7252138912      209.9102482729
H                59.7143147762       44.0184453437      211.4623274733
N                62.2246375008       46.1152628113      205.3453478161
C                62.6185471925       45.9650450407      203.9130680214
C                62.0489467509       47.1269811978      203.0113071569
O                62.7664298355       47.7795601077      202.2513412645
C                62.2047997703       44.5217553663      203.4685577774
C                62.1403626199       44.1249736176      201.9655077660
C                63.4481927800       43.9721000525      201.1715801609
C                64.3670845390       42.8118145102      201.5577439370
N                63.9229700435       41.5121827311      200.9838180302
H                61.8775317303       45.2701269471      205.7754483473
H                63.7063032449       46.0799291794      203.8476188975
H                62.8810700774       43.8421578828      203.9875148252
H                61.1969686732       44.3646569510      203.8502141736
H                61.5811000039       43.1891491524      201.9319597108
H                61.5358791111       44.8715024021      201.4464801837
H                63.1803879091       43.8868886635      200.1175822769
H                64.0119759023       44.9005790359      201.2724902995
H                65.3677817514       43.0239983728      201.1811002217
H                64.4183866799       42.7144007424      202.6417075336
H                64.5587048290       40.7534542034      201.2719561524
H                62.9652421147       41.2781443354      201.2867053485
H                63.9299017890       41.5636274494      199.9542288000
N                60.7228808684       47.3162108570      203.1428721417
C                59.9552832897       48.2767588764      202.3844736429
C                60.3467533160       49.7499899043      202.6252612436
O                60.3587611196       50.5461655304      201.6845775811
C                58.4832717090       48.0659664627      202.7321411682
C                57.9559254292       46.7285025978      202.2455799481
C                56.4672600267       46.5115214785      202.6978822381
O                55.9009291140       47.4821795811      203.2412408610
O                55.9762346675       45.3751232420      202.5156607012
H                60.2107477062       46.7645689518      203.8229904443
H                60.1172642188       48.1018736470      201.3117140420
H                58.3646666058       48.1438511955      203.8153737562
H                57.8707042175       48.8557752420      202.2937956753
H                57.9511164750       46.6921959669      201.1532481520
H                58.5447334936       45.8873432144      202.5992609789
N                60.5763139607       50.0773521510      203.9048724864
C                61.0074432018       51.3944588704      204.3538147826
C                62.3444064603       51.6716527036      203.7112502851
O                62.5587742661       52.7335137776      203.1419008487
C                61.0639392551       51.4876467429      205.8844158420
C                59.6281206770       51.3828869369      206.3993330975
C                61.7211405491       52.7846388023      206.3190521065
C                59.5552191319       51.2716489236      207.9040646134
H                60.4946489092       49.3576597221      204.6170729293
H                60.3112446533       52.1503037104      203.9675022874
H                61.6569060659       50.6406448577      206.2445657709
H                59.0720308825       52.2624557367      206.0687089107
H                59.1596337537       50.5058868201      205.9552893952
H                61.7727113571       52.8406659263      207.4022886990
H                62.7334089474       52.8660320017      205.9271690262
H                61.1561453663       53.6408431593      205.9580567489
H                58.5172624649       51.2068268603      208.2197233545
H                60.0746113166       50.3753014373      208.2346940022
H                60.0069177958       52.1266858256      208.3951320768
N                63.2383479881       50.6884815668      203.7903384079
C                64.5566016608       50.8117160705      203.1994891401
C                64.4855391788       51.0090695261      201.6927145811
O                65.2098442803       51.8303423803      201.1310160313
H                63.0251223724       49.8532361651      204.3273527708
H                65.0922269071       51.6704268508      203.6200453528
H                65.1183021758       49.9039068419      203.4190784912
N                63.5933068603       50.2260768901      201.0752704922
C                63.3395252381       50.3302196221      199.6385710991
C                63.0215936994       51.7882366026      199.2540171775
O                63.6563154201       52.3782396006      198.3829027391
C                62.2036910174       49.3964677930      199.2274375139
H                63.1289428676       49.4666904979      201.5695108687
H                64.2599537684       50.0711481741      199.0981589664
H                62.0233202180       49.4832964459      198.1592613477
H                62.4777148135       48.3734763688      199.4670338115
H                61.2924664263       49.6587280432      199.7569611471
N                61.9940752008       52.3041783280      199.9676899973
C                61.5045831962       53.6799212032      199.8504036127
C                62.6946846978       54.6435867051      200.0775042593
O                63.0840945710       55.4243516782      199.2012695990
C                60.3460916592       53.9656201644      200.7865939783
C                59.9346137033       55.4184848526      200.6406294159
S                58.8723316937       55.9582751334      202.0133774948
C                60.2028778705       56.1024251564      203.2339035211
H                61.5104476165       51.7112933076      200.6345918724
H                61.1755383650       53.8410038664      198.8121773158
H                59.5031778507       53.3159165569      200.5465921199
H                60.6523091960       53.7529556795      201.8118066202
H                60.7989516849       56.0792848496      200.6237576687
H                59.3515972733       55.5716097500      199.7330868291
H                59.7579616413       56.4900381163      204.1464378993
H                60.6490507835       55.1327417751      203.4339615353
H                60.9490189542       56.8000602099      202.8667848170
N                54.2011623738       52.7227119469      200.5212876748
C                55.0752327925       52.7579193293      201.6853690628
C                55.0643060126       54.2045484403      202.2671895417
O                54.8253266451       54.4766061873      203.4502310977
C                56.5523460334       52.3584815374      201.4118008233
O                56.7245538882       51.0246456607      200.9310117312
C                57.2990411883       52.4781510080      202.7314211421
H                54.6132824144       52.3995968078      199.6511931349
H                54.6822038561       52.0811077748      202.4562018540
H                56.9601676186       53.0650689390      200.6708307235
H                57.6696135395       50.8368380009      200.9385813727
H                58.3353148365       52.1716141928      202.5891523668
H                57.2881846558       53.4972517597      203.1067695760
H                56.8449008380       51.8167692834      203.4650644447
H                53.4240716796       49.0390693811      207.1031730876
H                63.1745709332       54.6474145312      200.9548266338
H                53.5080864373       52.1716800252      200.6825624945
H                55.2589424880       54.9842909057      201.6721111182
