 306 
 
N                44.9549724369       16.6400723751        9.2296384918
C                44.0610929447       17.6900119287        9.6595497436
C                44.5388676595       19.0993138216        9.2518623732
O                43.8310456788       19.7496844284        8.4839808482
C                43.8247964949       17.4068122415       11.1362719933
C                43.4543857703       18.5995153460       11.9406785006
C                42.1536616399       18.7288598962       12.4084018074
C                44.4545097603       19.4884983168       12.3435893975
C                41.8687041876       19.6887897751       13.3651167758
C                44.1627456006       20.4630066608       13.2811056490
C                42.8762969914       20.5323977693       13.8246659889
H                45.4492032082       16.1255015097        9.9452275168
H                43.1182626479       17.5830346748        9.1032070018
H                43.0721478903       16.6239168101       11.2203066593
H                44.7611844883       17.0241718126       11.5501159975
H                41.3910587613       18.0468737634       12.0684964355
H                45.4695849239       19.3215786865       12.0349351734
H                40.8731957451       19.7665017427       13.7735055145
H                44.9487407813       21.0998475621       13.6548731261
H                42.6616090875       21.1851438917       14.6593123937
N                45.6873760818       19.5869993453        9.7504702338
C                46.1000015618       20.8640534015        9.1894073134
C                46.0907903963       20.8628915309        7.6518283898
O                45.8593309440       21.8958038028        7.0337247177
C                47.4334386015       21.5050405590        9.6923664203
C                48.3085646657       21.9689078949        8.5059494479
C                48.1850839865       20.5798070366       10.6201880518
C                49.6881371156       22.4199586953        8.9167993378
H                46.3747797733       18.9429855296       10.1249826843
H                45.2862453020       21.5576774343        9.4367008175
H                47.1780930059       22.3991742175       10.2665070104
H                48.4087214108       21.1612711236        7.7775826323
H                47.8023896276       22.7973522744        8.0128736790
H                49.0562377322       21.0765854459       11.0315201910
H                47.5772820946       20.2321029370       11.4486825504
H                48.5446218412       19.7017593119       10.0762059149
H                50.1656547829       22.9222552562        8.0771941030
H                49.6400428270       23.1223658027        9.7445625222
H                50.3238401352       21.5838714293        9.1961330892
N                46.3707297097       19.7369036321        6.9969990104
C                46.3014675826       19.7966392646        5.5559685613
C                44.8548088322       20.0449808248        5.1073090171
O                44.6682334129       20.8100418452        4.1609713868
C                46.8643469027       18.5332286186        4.8968613892
C                46.5390542007       18.4891816941        3.4165203916
C                47.5485149263       18.4923392499        2.4641867363
C                45.2147927750       18.3909431530        2.9893981879
C                47.2158171109       18.4126037341        1.1294399618
C                44.8809699726       18.3887889006        1.6600034215
C                45.8899660662       18.3855314282        0.7282645766
H                46.6618414003       18.8689121625        7.4279613492
H                46.8598573054       20.6754265866        5.2047091602
H                47.9388221633       18.4814436579        5.0717795901
H                46.4044630372       17.6827262929        5.4094815303
H                48.5844105184       18.5489341865        2.7655438154
H                44.4353013412       18.2364049562        3.7170246522
H                47.9946965517       18.3863878485        0.3806144064
H                43.8488972908       18.3462255141        1.3460535865
H                45.6519230585       18.3525122944       -0.3251890599
N                43.8417582902       19.4308201775        5.7581755527
C                42.5164668576       19.5822129186        5.1682135685
C                42.0289740931       21.0144165866        5.3400881405
O                41.4417540870       21.6063768752        4.4425633479
C                41.3952893303       18.6687058754        5.6450111273
C                40.2108437066       18.8973979794        4.7014813435
C                41.7829678428       17.2004321926        5.5815907428
H                44.0283237158       18.6945329565        6.4281557296
H                42.6301938325       19.4442373070        4.0811440745
H                41.1315745144       18.9343714743        6.6727172125
H                39.4145456654       18.1972148329        4.9392819913
H                39.8175701182       19.9056720779        4.7850441413
H                40.5132731903       18.7490166932        3.6691448288
H                40.9772549274       16.5884322886        5.9751138839
H                41.9659974275       16.9100441578        4.5488015103
H                42.6881637118       16.9946278605        6.1480562671
N                42.2439232548       21.5627637929        6.5468708651
C                41.8917264116       22.9640673082        6.6852393081
C                42.7656171981       23.9025599175        5.8082865922
O                42.1412666482       24.5080863513        4.9315945602
C                41.6318434440       23.3430511433        8.1301553548
C                42.8512721192       23.2419019344        9.0306667756
C                42.4085971690       23.0731327748       10.4920381322
C                43.6062216104       23.2260591222       11.4256280206
N                43.1274258381       23.3869405465       12.8185080405
H                42.7906627714       21.0672981518        7.2403613863
H                40.9215987651       23.0575836496        6.1726873722
H                41.2227184740       24.3533896534        8.1545888416
H                40.8605576221       22.6604067483        8.4941297743
H                43.4565284441       22.3840647365        8.7382320370
H                43.4610804063       24.1386335172        8.9231824814
H                41.6680430102       23.8431425891       10.7097114492
H                41.9477413300       22.0950010233       10.6234478699
H                44.2508599369       22.3476051862       11.3729479064
H                44.1820636624       24.1094023439       11.1433276826
H                43.9180288515       23.5590838200       13.4581843919
H                42.4857474321       24.1922018366       12.8828168287
H                42.6373614513       22.5275468516       13.1313307221
N                44.0911589787       24.0627293292        5.9375415148
C                44.8122274617       24.9207650135        4.9692671864
C                44.2700340661       24.8371476370        3.5106553290
O                44.2205911596       25.8212644921        2.7770170801
C                46.3496145294       24.6581493860        4.9471377481
C                47.0076703533       25.1650849478        6.2445284752
C                47.0299599827       25.2844234232        3.7179007962
C                48.5291500534       25.0176554034        6.2800966110
H                44.6436172540       23.3937373337        6.4667263771
H                44.6425948295       25.9642517990        5.2687094928
H                46.4808553399       23.5716862517        4.8872365083
H                46.7540320655       26.2165737679        6.3884501555
H                46.5837194578       24.5971442307        7.0739163515
H                48.0760459687       25.0019950700        3.7034739805
H                46.5744615822       24.9342463121        2.7956788758
H                46.9471549372       26.3679800204        3.7423550734
H                48.8869666006       25.1962423846        7.2903985478
H                48.8266233861       24.0166423999        5.9763081091
H                49.0133073765       25.7354374130        5.6241368240
N                43.9270013295       23.6255443807        3.0644093385
C                43.6227735633       23.4118888139        1.6799246517
C                42.1539937086       23.5936287799        1.2910638327
O                41.8417737744       23.4693780296        0.1104916181
C                44.0582256810       22.0042863615        1.2994550344
H                44.0500371041       22.7932468185        3.6269109214
H                44.1719293220       24.1511911137        1.0787706754
H                43.8491863783       21.8340186878        0.2481964525
H                45.1212176302       21.8829013480        1.4868030312
H                43.5180832491       21.2734961564        1.8957755268
N                41.2803194650       23.8565465284        2.2707834457
C                39.8424665692       23.9457985058        2.0327967536
C                39.4402062232       25.4306426329        1.8793657399
O                38.6941391957       25.8772244299        1.0161929970
C                39.0434031112       23.2359805256        3.1512707432
C                38.3277061533       21.9150406558        2.7800223342
O                38.2459151134       21.4239962750        1.6685215472
N                37.7807305736       21.3116305374        3.8578811351
H                41.6146185261       23.9019979761        3.2284423437
H                39.6307828346       23.4538425265        1.0737879302
H                39.7435812079       22.9873118152        3.9500752931
H                38.2797976663       23.9101102309        3.5439808598
H                37.2390215798       20.4740680624        3.7149839585
H                37.7516248036       21.7548803924        4.7593957940
N                40.0156524064       26.2207449300        2.7986284388
C                39.7870591119       27.6477276578        2.7563982407
C                40.3202861824       28.1486636428        1.3906282270
O                39.5731723219       28.6357858321        0.5518990619
C                40.3964221091       28.3131588819        4.0243529634
O                39.6699341394       27.9664838411        5.1897868952
C                40.5175695661       29.8221385189        3.8140949803
H                40.5747090678       25.8441965316        3.5515237728
H                38.7032309494       27.8308148046        2.7139024367
H                41.3955599155       27.8910369566        4.1840459490
H                38.7582976300       28.2760009207        5.1152717705
H                40.9222412791       30.3074750583        4.6971224621
H                41.1629214560       30.0109768101        2.9630238527
H                39.5343476518       30.2403044498        3.6038483530
N                41.6547751304       28.0002510153        1.2542221534
C                42.4430041089       28.4602716770        0.1185901484
C                42.4315367145       27.4474682643       -1.0409650731
O                43.3735827934       26.7010951438       -1.2292406768
C                43.8855237984       28.6716417702        0.5635133092
C                44.1439340042       30.0392516684        1.1818094593
C                45.2759033102       29.9067903930        2.1927750775
C                44.4696296309       31.0605714839        0.0910827567
H                42.1397773333       27.3985279542        1.9069758334
H                41.9609054639       29.3791773992       -0.2336395379
H                44.1264613078       27.8738701858        1.2692006228
H                44.5348474402       28.5219824567       -0.2988873958
H                43.2450334638       30.3661464516        1.7166591403
H                45.4911547996       30.8639689206        2.6641361384
H                45.0033763739       29.1999469359        2.9720391623
H                46.1811011646       29.5485093367        1.7092678594
H                44.6483512424       32.0335147181        0.5419300551
H                45.3625222139       30.7351186357       -0.4351815135
H                43.6306851921       31.1313525978       -0.5958914994
N                41.3618200390       27.5233061691       -1.8576440172
C                41.1844907996       26.6912732856       -3.0464082207
C                41.1886011866       27.5626999728       -4.3268924892
O                40.1862905756       28.2024870732       -4.6349982251
C                39.8280491680       26.0000895017       -3.0764800034
C                39.6287656200       25.0913386622       -1.8974057781
S                38.2686892931       23.9950525106       -2.2830493761
C                39.0467509431       22.8868320448       -3.5150823101
H                40.5540003056       28.0616914456       -1.5716274689
H                41.9989773272       25.9609170027       -3.0373174094
H                39.0397156399       26.7569006427       -3.1056951729
H                39.7526007244       25.4375175342       -4.0097543538
H                40.5157192098       24.5018316092       -1.6542940312
H                39.3171283687       25.6366927408       -1.0078026485
H                38.3438212968       22.0689279838       -3.6306228664
H                39.1570789476       23.3967948001       -4.4676834512
H                39.9917393732       22.5482208906       -3.1086788403
N                42.3482794610       27.6124990908       -5.0211416261
C                42.4423483998       28.3095364654       -6.3034637067
C                41.9697035826       27.3384466559       -7.4230225801
O                41.9143094811       26.1328623130       -7.2407464343
C                43.8187535675       29.0350296920       -6.3747011284
C                43.6294682871       30.3749634352       -5.6480449590
C                44.8323408888       31.0298479342       -4.9697908443
C                44.2497729285       31.8394252841       -3.7970788705
N                45.2573291402       32.5828284479       -2.9892212747
H                43.0812356351       26.9573091257       -4.7919262911
H                41.6521771130       29.0719026493       -6.2726587856
H                44.5712814780       28.4222545532       -5.8812866972
H                44.1134362418       29.1831595195       -7.4123240387
H                43.1594554959       31.0830230800       -6.3303322323
H                42.9011477762       30.1689164471       -4.8580818786
H                45.5073237412       30.2621232047       -4.5928469349
H                45.3712574968       31.6668268697       -5.6677261016
H                43.5188108007       32.5515399312       -4.1800860899
H                43.7356536153       31.1465614118       -3.1275540785
H                44.8004410922       33.0669945519       -2.2031327068
H                45.9677263789       31.9381884354       -2.6115468807
H                45.7338598512       33.2832228752       -3.5777518471
N                41.5385379750       27.9298247538       -8.5654292882
C                41.5578457086       27.2083570767       -9.8369352946
C                42.4638101373       28.0761402432      -10.7443598980
O                42.3520512936       29.2995260592      -10.7311486327
C                40.1554423232       26.8850478302      -10.3910497913
C                40.1037244060       25.6599571590      -11.3171298165
C                40.2789184404       24.3633749599      -10.5214502922
C                40.2327491242       23.1117709594      -11.3972273618
N                40.4856550886       21.9082795624      -10.5467761463
H                41.6350498415       28.9324561052       -8.6754150014
H                42.0809594592       26.2662196502       -9.6408507258
H                39.5152171812       26.6933682174       -9.5268041995
H                39.7771386382       27.7657623792      -10.9131568273
H                39.1301659778       25.6554573923      -11.8061341897
H                40.8745964847       25.7509892178      -12.0872538361
H                41.2371287840       24.4020103146       -9.9995022044
H                39.5075714329       24.3257208446       -9.7517049607
H                39.2467450850       23.0257719802      -11.8537424058
H                40.9862257067       23.1689639122      -12.1836403699
H                40.3116009444       21.0307345746      -11.0583014618
H                41.4555046590       21.9165370667      -10.2061664306
H                39.8561937765       21.9611541701       -9.7300146104
N                35.9306050404       21.3771263199      -11.1418140556
C                35.7769008276       21.8372372833       -9.7551248476
C                34.3002169780       21.6576321318       -9.3862130404
O                33.4529217497       22.2511008068      -10.0405829580
C                36.1166668185       23.3422340172       -9.6198933440
C                35.9925958725       23.8841059542       -8.1858966289
C                37.3453760011       24.2604801907       -7.4537667748
O                38.4081767418       24.1945027146       -8.0988257117
O                37.2527580683       24.5940787038       -6.2569945348
H                35.0972794903       21.5054696836      -11.6992250683
H                36.4313204228       21.2346458086       -9.1186151509
H                37.1484978875       23.4917602271       -9.9435954797
H                35.4599810545       23.8993176248      -10.2930041819
H                35.3903877589       24.7940931201       -8.1815914413
H                35.4682530174       23.1738942038       -7.5401626544
N                32.7538486646       21.8606859683       -5.9529033370
C                32.3695559691       22.9371825201       -5.0107531116
C                33.3093028436       23.1850104841       -3.7959533366
O                33.3496850181       24.3253298202       -3.3612919319
C                30.9763288015       22.7560009734       -4.3910094831
H                33.7508540933       21.8113468888       -6.1127254896
H                32.3891882038       23.8774644623       -5.5788481180
H                30.7912436233       23.5923905222       -3.7233722431
H                30.2227979808       22.7280126809       -5.1689917252
H                30.9375175900       21.8288449620       -3.8241469007
N                33.9026929514       22.1029401245       -3.2307200243
C                34.8438279861       22.0218153792       -2.0891519428
C                35.7440170819       20.7256427953       -2.2575960523
O                36.1376088480       20.3828113111       -3.3670474534
C                34.1387317296       22.1067928000       -0.7169005176
C                33.3402392585       23.3916990311       -0.4258053751
C                32.6288768333       23.2172784226        0.9194775359
C                34.2266204529       24.6383805863       -0.4096132664
H                33.7948339153       21.2289623034       -3.7303668783
H                35.5292375113       22.8757250532       -2.1683650694
H                33.4683931486       21.2514672135       -0.6057275978
H                34.9185894339       22.0503433466        0.0451402635
H                32.5821678135       23.5297388153       -1.2011829032
H                32.0156514521       24.0887707670        1.1334127484
H                31.9862109404       22.3408509618        0.9067852081
H                33.3570331743       23.1077455560        1.7202464847
H                33.6534985712       25.4924829926       -0.0586015858
H                35.0853951261       24.5020358972        0.2454566306
H                34.5810123576       24.8680738661       -1.4096472469
N                36.0361767192       20.0023774557       -1.1507609068
C                36.6639087339       18.6732937948       -1.1349094911
C                35.8475391729       17.8242899607       -0.1271589936
O                36.1610858533       17.7577179738        1.0416678047
C                38.1378667139       18.7162006029       -0.7353658712
C                38.9424363824       19.4626689114       -1.8082962369
C                40.1906091716       18.7042499504       -2.2412966477
C                40.8193627566       19.4121690822       -3.4345961159
N                41.9682891407       18.6191241883       -3.9553650142
H                35.8990987310       20.4047025952       -0.2366130568
H                36.5679848600       18.2741091519       -2.1506058118
H                38.2285037926       19.2022193519        0.2345446722
H                38.4750995730       17.6847193989       -0.6295975277
H                38.3082427115       19.6113541018       -2.6827554335
H                39.2109283682       20.4485112872       -1.4333417642
H                40.8902170994       18.6497935572       -1.4069132832
H                39.9060950384       17.6881403262       -2.5209837086
H                40.0789267335       19.5268746834       -4.2264837979
H                41.1709471918       20.3995472089       -3.1386587041
H                42.4168141762       19.0842714612       -4.7581594892
H                42.6708899011       18.4856877573       -3.2126025279
H                41.6377512173       17.6888490397       -4.2528918445
H                44.4917025078       16.0209154199        8.7691760746
H                43.1387260101       27.6406995861      -11.3400779510
H                36.5956292788       21.8357539443      -11.5385551103
H                34.0440812599       21.0642373722       -8.6231421700
H                32.4909145148       21.0653673902       -5.6237620418
H                35.0435119401       17.3167843389       -0.4369625648
