 36 
 
N                19.0304559458       31.6855546319       22.0521754726
C                19.9360677464       32.5452340344       22.8027638955
C                21.1322647864       32.8934779991       21.9444833584
O                21.3888101969       32.2350552565       20.9328389272
C                20.4444552401       31.8524606457       24.0807243997
O                21.3619916343       30.8462702171       23.7305647742
H                19.4620948145       31.0709203919       21.3780005411
H                19.3722079136       33.4324588127       23.1012410780
H                20.9342643818       32.6015652076       24.7177100284
H                19.5877089904       31.4214532765       24.6145956039
H                21.6576123899       30.3436089842       24.5480227414
O                23.3790025036       33.5445092686       25.1343096944
H                23.9034390990       34.2747928826       25.5154583708
H                23.3548449045       32.8406747941       25.7940911375
O                20.7267306370       35.6569321869       24.2350842564
H                20.7947583369       36.6188099553       24.1353369602
H                20.8322035211       35.4367868023       25.1689132003
O                19.5606699642       34.6561812509       26.4101953062
H                19.7198293057       34.1851754382       27.2354420490
H                18.6129131566       34.7839018196       26.3392631395
N                18.0468880207       31.0503162471       32.7085695621
C                17.2611877749       31.3402787300       31.5175703875
C                16.9598810556       30.1128970532       30.6700295202
O                16.1513753673       30.2030645116       29.7514058366
C                17.9669720573       32.3750050610       30.6009251422
C                19.3642416962       31.9578404177       30.0689333330
O                19.7551090513       30.7775206758       30.2302103195
O                20.0130446567       32.8486002437       29.4819003323
H                19.0558242117       31.1283054144       32.6575042720
H                16.2969378971       31.7369735243       31.8524663653
H                17.3334671657       32.5424387532       29.7304374930
H                18.1095182875       33.3099474039       31.1395548960
H                18.5793089261       31.1544178869       22.6217017009
H                21.7211659761       33.6616825770       22.1955951170
H                17.8084569862       31.6122306978       33.3699339033
H                17.4187804153       29.2459785264       30.8646153512
