 388 
 
N                 9.9979623712       47.4897967404       70.1313291710
C                 9.0146522887       47.1230195863       69.1265428781
C                 8.3417353600       45.7982271054       69.5405386244
O                 7.1069326847       45.6817798178       69.6884835261
C                 9.7088513971       47.0071403342       67.7658489421
C                 8.7326890633       46.7172242467       66.6228219164
C                 8.0446581965       48.0116489308       66.0763780930
O                 7.9605998428       49.0013233297       66.8408917958
O                 7.6342703108       47.9308759805       64.8731512193
H                10.9015548527       47.7829747936       69.7891107020
H                 8.2236912112       47.8798057538       69.0516605421
H                10.2004835640       47.9546682854       67.5683274811
H                10.4800722919       46.2257112687       67.8088871748
H                 9.2466250772       46.2505441916       65.7818166322
H                 7.9324602114       46.0511188613       66.9484025456
N                 9.1955078480       44.7783970855       69.6907206994
C                 8.8064853023       43.3789943934       69.8954098440
C                 7.8802021960       43.2375052613       71.1095515183
O                 6.9303395053       42.4387087659       71.1198877923
C                10.0770973101       42.5270090724       70.0429231627
C                 9.8085554576       41.0517931704       69.8351864022
C                11.1146906629       40.2422498230       69.5116842973
O                10.9196738943       39.0828064386       69.1193526522
O                12.2360798434       40.8032878880       69.6492543838
H                10.1817899583       44.9566435856       69.5835313039
H                 8.2346877146       43.0526653772       69.0012703601
H                10.7826596404       42.8536088626       69.2650525167
H                10.5149583437       42.7226060929       71.0071561692
H                 9.3337111422       40.6227435764       70.7196139777
H                 9.1384906550       40.8859051783       68.9861554870
N                 8.2172764807       43.9994338295       72.1420258784
C                 7.4070821237       44.1038494816       73.3010355064
C                 5.9736342419       44.4391783221       72.9217070300
O                 5.0054616643       43.7285157774       73.2066652235
C                 7.9628925589       45.1863518272       74.2112548863
C                 7.0241130620       45.3506744717       75.4389763257
C                 9.3831281328       44.8592003889       74.6591020622
H                 9.0156700938       44.6157347079       72.0404382968
H                 7.3861412420       43.1270165420       73.8284481680
H                 7.9976829033       46.1209998480       73.6699428402
H                 7.2843393278       46.2616005640       75.9855345749
H                 5.9987703978       45.4472017113       75.1128486781
H                 7.1170732426       44.5022966096       76.1029271352
H                 9.7761138584       45.6468420239       75.3085246024
H                 9.4041669863       43.9275693242       75.2575787057
H                10.0492327709       44.7500580983       73.8305270961
N                 5.8513102960       45.6147010106       72.2893029467
C                 4.5382860730       46.0851628989       71.8774154334
C                 3.8201949973       45.0205045515       71.0237175581
O                 2.6905798830       44.6704996875       71.2669952202
C                 4.6697784057       47.3969573318       71.1362260911
H                 6.6448245152       46.1276336013       71.9662666514
H                 3.9071331735       46.2124241872       72.7692482113
H                 3.6882491505       47.7299795423       70.7704069283
H                 5.0699839948       48.1596875627       71.7843306654
H                 5.3232001490       47.2797682098       70.2693661966
N                 4.5809563558       44.5356836685       70.0113263618
C                 4.0404900749       43.6186876880       69.0368946622
C                 3.3418495018       42.4212729029       69.7102734972
O                 2.2280444347       42.0415100079       69.2942902444
H                 5.4961892268       44.9112243903       69.8502019451
H                 3.3160586907       44.1033488140       68.3981994990
H                 4.8638430196       43.2248661408       68.4417366894
N                 4.0043899466       41.7840677639       70.6964597735
C                 3.4788065168       40.5540822085       71.2502180846
C                 2.3543404174       40.8251018945       72.2250201259
O                 1.4049506016       40.0845623222       72.2916788075
C                 4.5858373527       39.6624050337       71.8016634366
C                 4.1814954128       38.1868913355       71.7303909650
C                 4.9380282920       40.0494765729       73.2327680734
C                 4.2250429275       37.6097480226       70.3431504058
H                 4.9275703075       42.1048173488       70.9475643959
H                 2.9886767378       40.0313666937       70.4016004485
H                 5.4826938417       39.8294752735       71.1857494906
H                 4.9077284030       37.6259106039       72.3450390111
H                 3.2001015441       38.0764313174       72.1632983535
H                 5.8037494120       39.4643755988       73.5607442023
H                 5.2066276140       41.1037825811       73.3004879869
H                 4.1073843832       39.8562372542       73.9066555553
H                 4.0002218386       36.5510411640       70.3534658145
H                 3.5128282416       38.1127513882       69.6789691385
H                 5.2234817571       37.7426389588       69.8950887263
N                 2.5357835410       41.9154528768       72.9965987031
C                 1.4975429357       42.3702944748       73.9058965259
C                 0.2342379857       42.7865333860       73.1403361774
O                -0.8537165776       42.8003248256       73.6921052098
C                 1.9666084014       43.5329320799       74.7876677335
C                 2.3763325257       43.1291280372       76.2172094971
C                 1.1949374589       42.6490323263       77.0719843518
N                 1.5474830530       42.7647810637       78.4729362885
C                 0.7029385018       42.4970709885       79.4910394750
N                -0.5327523840       42.1075085069       79.3591192936
N                 1.1322279577       42.6189045780       80.8064898869
H                 3.3385631264       42.5079115135       72.8835199615
H                 1.1730838204       41.5116672657       74.5234900410
H                 2.8113352083       43.9994212264       74.3002982248
H                 1.1578375345       44.2617706567       74.8539836694
H                 3.1364035683       42.3569946359       76.1711505942
H                 2.7943725378       44.0190130099       76.6833372279
H                 0.3075389042       43.2554933074       76.8515565379
H                 0.9534269697       41.6034793783       76.8498856425
H                 2.4651961470       43.0808962507       78.6938622286
H                -0.9760612448       42.0210880752       78.3928533091
H                -1.1170718742       41.9721515924       80.1093089508
H                 2.1350508676       42.9704742353       80.9351585149
H                 0.5787387041       42.5423668909       81.5146885341
N                 0.4152701026       43.0909780771       71.8499980993
C                -0.7403989556       43.4434450776       71.0550700020
C                -1.5334942817       42.1502659760       70.7649782657
O                -2.7015535846       42.0096482544       71.1019813092
C                -0.3139611586       44.1464289814       69.7611577635
H                 1.3196876824       43.3437862085       71.4919500694
H                -1.4156136578       44.0820834452       71.6327846797
H                -1.1824057951       44.3382575143       69.1387078529
H                 0.1709943221       45.0760909483       70.0054401181
H                 0.3897505835       43.5195441683       69.2091685798
N                -0.8175309157       41.2106944444       70.1184907351
C                -1.4550442970       40.0239719601       69.5520427816
C                -2.0655749102       39.1284912542       70.6719983208
O                -3.1888634893       38.7216130722       70.6065596468
C                -0.4672288772       39.2304919403       68.6728218313
C                -1.1921897681       38.3103136663       67.6923055099
C                -0.3852684480       37.0698199559       67.3454613342
C                 0.9654191514       37.4221452908       66.7149806999
N                 1.7188420495       36.1455996297       66.4630111415
H                 0.1456520176       41.3968534209       69.8720851800
H                -2.3097855156       40.3487973450       68.9509118423
H                 0.1631345392       39.9515483345       68.1591897501
H                 0.1669024556       38.6423118633       69.3623483370
H                -2.1242221163       37.9875602846       68.1628763596
H                -1.4419067724       38.8768953328       66.8065530025
H                -0.2268233253       36.4918771546       68.2637284656
H                -0.9736886092       36.4703047256       66.6508664990
H                 0.8239994587       37.9424008134       65.7846279332
H                 1.5471547983       38.0341277754       67.3977394560
H                 2.6555833905       36.3558600541       66.0645710041
H                 1.8313969645       35.6238590846       67.3393369185
H                 1.2087881653       35.5616150588       65.7860402543
N                -1.1885755972       38.7864208851       71.6599766134
C                -1.5871550522       37.9782033918       72.7933713925
C                -1.5981192056       38.9399511801       73.9868193749
O                -0.5766431464       39.1526517646       74.6237330802
C                -0.5756967728       36.8594025816       73.0303919528
C                -0.3509055405       35.9124372190       71.8707189248
C                -1.2009290331       34.8298742724       71.6256329181
C                 0.8018477321       36.0297938417       71.0795579054
C                -0.8917379295       33.8865763430       70.6804303640
C                 1.1060954735       35.0735184252       70.1275575828
C                 0.2751608011       33.9919280984       69.9262933319
H                -0.3055304959       39.2674119599       71.7346186477
H                -2.5825118106       37.5819284031       72.5681770624
H                 0.3678428513       37.3318568253       73.3022910692
H                -0.9446519111       36.2857932929       73.8820893029
H                -2.1036528701       34.7299910306       72.2130163679
H                 1.4575775007       36.8665825458       71.2502516073
H                -1.5687922523       33.0576912262       70.5135087572
H                 2.0226926151       35.1718683256       69.5718038716
H                 0.5087848290       33.2358067119       69.1980133841
N                -2.7217027678       39.5898335723       74.2649296437
C                -2.6399763133       40.8511990345       74.9590122408
C                -2.6465607206       40.7553934926       76.4681706366
O                -2.2648409198       41.6768294662       77.1886951660
C                -3.8500023594       41.6166862029       74.4586213006
C                -4.8780741241       40.5099195609       74.2271120168
C                -4.0268786297       39.3840836506       73.6515928921
H                -1.7230368069       41.3814966986       74.6925051817
H                -4.1947784145       42.3866689151       75.1652407806
H                -3.6082160006       42.1080247129       73.5151575492
H                -5.3363803245       40.2095341434       75.1664032770
H                -5.6681054708       40.8210237843       73.5360133384
H                -4.4212145743       38.4051590043       73.9152709701
H                -3.9829469332       39.4759774512       72.5574895008
N                -3.0891815180       39.5901844182       76.9675687953
C                -3.3118340335       39.3374171269       78.3802834423
C                -2.2543640416       38.3599096273       78.9881692807
O                -2.5034606530       37.6786755778       79.9984000959
C                -4.7310143408       38.7762126765       78.5888916533
C                -5.0414349959       37.5567892479       77.7006345075
O                -4.5559258970       37.4091585433       76.5379198364
N                -5.8825368152       36.7015775441       78.2711042641
H                -3.4327009721       38.8685037295       76.3552410098
H                -3.2073174295       40.2715536921       78.9175870782
H                -4.8379425891       38.4868920619       79.6283558752
H                -5.4489452161       39.5375690568       78.3389890186
H                -6.2048429696       35.8861394812       77.6626223950
H                -6.2951582636       36.8255316814       79.1193252140
N                -1.0768712454       38.3366221975       78.3401202983
C                 0.0410126472       37.4612301006       78.6530422499
C                 1.2898380641       38.3254701790       78.9866206757
O                 1.4467124836       39.4622176494       78.5650494416
C                 0.3603540993       36.5675587712       77.4381022182
C                -0.8174368319       35.7259584112       76.9602520466
C                -0.9906279144       34.3684614419       77.6556377164
C                -0.3126164266       33.2155965845       76.8638074191
N                -1.0539433386       31.9575864484       77.0863699742
H                -0.9415015187       38.9361632261       77.5376202457
H                -0.2472779811       36.8703243969       79.5216057048
H                 0.6545532564       37.2473273348       76.6256133573
H                 1.2127649823       35.9418361058       77.6876886267
H                -1.7350845264       36.3201381211       77.1031419855
H                -0.7241192986       35.5747780619       75.8874963374
H                -0.6043415276       34.4391411258       78.6677144294
H                -2.0629267764       34.1706126234       77.7064844106
H                -0.3172024751       33.4345214412       75.8164021930
H                 0.7148701770       33.0878401328       77.2144641725
H                -0.7359050416       31.1467251820       76.5476041235
H                -1.0089667395       31.6753469864       78.1040175666
H                -2.0647192509       32.0970561616       76.8932780501
N                 2.2054403072       37.7137915165       79.7323536702
C                 3.3719212992       38.4144460858       80.1983297381
C                 4.6265107088       37.8980867092       79.5292324730
O                 4.9317703435       36.7082555321       79.5455383099
C                 3.5188048475       38.2171943328       81.7623546594
C                 2.3883777783       38.9770790616       82.4901576793
C                 4.8859182859       38.6999888581       82.2301106361
C                 2.1067976316       38.4021121475       83.8575017421
H                 2.0160622324       36.7894510977       80.1460606503
H                 3.2148110088       39.4707745874       80.0085626001
H                 3.4166380509       37.1509931506       81.9656806177
H                 2.6494778088       40.0240187998       82.5472904328
H                 1.4701946291       38.8824664911       81.8752329470
H                 4.9616871660       38.5967012504       83.3004684850
H                 5.6818061840       38.1305258602       81.7697784491
H                 5.0160702185       39.7560621472       81.9762537590
H                 1.2375797666       38.9064841538       84.2965543626
H                 1.9055547543       37.3420754407       83.8037036300
H                 2.9434563824       38.5705431174       84.5224737937
N                 5.3619268318       38.7794064302       78.9520772580
C                 6.5720925378       38.3415914027       78.2098636186
C                 7.7961557819       38.2934254284       79.1148629168
O                 8.2442969519       39.3448903480       79.6650751810
C                 6.7307531571       39.4127905524       77.1055827746
C                 6.2514142477       40.6820719613       77.8263089267
C                 5.0916636656       40.1879048385       78.7551699076
H                 6.4083635964       37.3464962017       77.8141171702
H                 7.7405123296       39.5063709107       76.7571278985
H                 6.0572036743       39.1803184166       76.2788562677
H                 7.0403169660       41.1045875343       78.4291086903
H                 5.9016227901       41.4471237346       77.1231711318
H                 5.1051545457       40.7362911173       79.6813116645
H                 4.1351699813       40.3220040571       78.2397347745
N                 5.8777079180       33.6483355833       76.6300074457
C                 4.6304677112       34.2874908977       76.9951632896
C                 3.9774343268       33.5194601700       78.1431362696
O                 3.6543856000       32.3519310706       77.9745955482
C                 3.6250536468       34.2632136607       75.8258244407
C                 4.0068040604       35.2443894300       74.7398039291
C                 3.3763414210       34.7966410222       73.3849090407
C                 3.5772316193       36.6443243716       75.1385130068
H                 5.8080117518       32.8001231778       76.0783732362
H                 4.8625399797       35.3098020099       77.3180647994
H                 3.6070007252       33.2468993931       75.4364400923
H                 2.6445989709       34.5104510939       76.1975840426
H                 5.0898611999       35.2431654475       74.5966551836
H                 3.6084330095       35.5163388731       72.6103758233
H                 3.7295502640       33.8275847179       73.1185276876
H                 2.2894515956       34.7628114267       73.4928089456
H                 3.9393848755       37.3883642114       74.4034469984
H                 2.4865216693       36.7293559378       75.1334568380
H                 3.9478979320       36.9199234031       76.0991407891
N                -1.0084232826       35.2955285003       83.2336960908
C                -1.0538531459       36.2615845085       84.3030479255
C                -0.9118726434       35.5663415503       85.6523193566
O                -0.1427112818       36.0332206172       86.5362375703
C                -2.3475008461       37.0800792573       84.1450311921
C                -2.3525279304       38.3895902839       84.9190841162
C                -3.4099841094       39.2938605447       84.4307826163
O                -4.6878267230       38.9343538691       84.5071998261
N                -3.0114143220       40.4471868870       83.9216522926
H                -1.7917007910       35.2927738909       82.5913683281
H                -0.1897777001       36.9325250367       84.2077561628
H                -2.4334199742       37.3167914663       83.0810116894
H                -3.2059419666       36.4712294663       84.4274320634
H                -2.5259792091       38.1808860333       85.9859365262
H                -1.3803274850       38.8819355219       84.8178118696
H                -2.1400130444       40.7273491923       83.8801849225
H                -3.7978911932       41.1245054686       83.5744728640
N                 5.4971050656       40.7124828344       87.3965208274
C                 5.5468042887       41.6905960252       86.3046654428
C                 5.3238471120       43.0869820879       86.8807795700
O                 6.0917278868       44.0616382092       86.6142739514
C                 4.4630295159       41.3414031009       85.2619994293
C                 4.6338905530       42.0953140140       83.9525229532
C                 5.7510040675       41.8394862344       83.1538141840
C                 3.6920976508       43.0152844953       83.5289764207
C                 5.8987472583       42.4726078340       81.9465184703
C                 3.8398197682       43.6642591105       82.3454219874
C                 4.9470089413       43.3958634343       81.5169500138
O                 5.0476509580       44.0286653699       80.3229107892
H                 4.7828144642       40.0057058471       87.3393256843
H                 6.5486147395       41.6689245276       85.8478795559
H                 4.5512966942       40.2681865364       85.0785486728
H                 3.4881369444       41.5258112247       85.7040731590
H                 6.4828989527       41.1249125242       83.4848623896
H                 2.8536538668       43.2417293197       84.1791977125
H                 6.7482996006       42.2597510007       81.3253130950
H                 3.1615133638       44.4521266131       82.0410459521
H                 5.8994981032       43.8299646340       79.9187698536
N                 8.8925161062       32.8736718234       69.9652966126
C                 8.4303574296       33.4882305549       71.2697990094
C                 7.6136611539       32.4373178727       72.0128126599
O                 6.4140526214       32.2657562857       71.7064874925
C                 7.5153113098       34.6945748942       70.9230389623
C                 7.5734857975       35.7309979083       72.0288630722
C                 7.3249273589       35.3743300278       73.3154166638
C                 7.9327514636       37.0704510897       71.7368509001
C                 7.4168373387       36.3227812484       74.3350020785
C                 8.0706698133       38.0116795726       72.7504544213
C                 7.8039278433       37.6395415635       74.0229669087
H                 9.3090238147       33.5337754228       69.3361349820
H                 9.5123858767       32.0669714820       70.1478444684
H                 8.0244041269       32.4819314537       69.4830222988
H                 9.2775772629       33.7930816089       71.8339033120
H                 7.8004669304       35.1697123846       69.9832868074
H                 6.4817172599       34.3581116268       70.8330165139
H                 7.0408988327       34.3709155381       73.5668720083
H                 8.1038290596       37.3759777047       70.7081075271
H                 7.2344016694       36.0572489922       75.3630446399
H                 8.3277872726       39.0182823190       72.5010728003
H                 7.8641352705       38.3490304995       74.8413572772
N                 5.3272504429       29.9294597534       73.3531747194
C                 4.0167937137       29.7832808521       73.9786783775
C                 4.1948151092       28.7136895060       75.0412845932
O                 4.9815761117       27.7897737274       74.8653387354
C                 2.9138175591       29.4121320583       72.9767162295
C                 2.4389616263       30.6603237071       72.2103542509
S                 1.5487233686       31.7682394704       73.2801039725
C                -0.0238321636       30.8179824153       73.5393892332
H                 5.5373058693       29.2846686042       72.6133314743
H                 3.7661783800       30.7309478607       74.4516686007
H                 3.3078764965       28.6766587534       72.2651221104
H                 2.0874880165       28.9593828271       73.5040153816
H                 3.2823742994       31.2282966289       71.8382508398
H                 1.7831062779       30.3800566548       71.3952760484
H                -0.7956772294       31.5611804630       73.7290429198
H                -0.2445160454       30.3249410445       72.5869759650
H                 0.0738391990       30.1105222454       74.3179271192
N                -3.0647955112       28.6957640452       74.7591960753
C                -3.5684718752       30.0377890913       74.6668783238
C                -4.8167242652       30.2255989829       75.5257459747
O                -4.9759390840       31.2146921221       76.2033813457
C                -3.9034212203       30.4112866982       73.2193280052
C                -4.4856866662       31.8057066661       73.1170724520
C                -3.7615542168       32.9128892723       73.5413117178
C                -5.7559645379       32.0089279577       72.6126679447
C                -4.3095356741       34.1870956928       73.4766974103
C                -6.2887444425       33.2828505102       72.4980976409
C                -5.5823373379       34.3747879527       72.9466133598
H                -3.6108065263       27.9696901901       74.3004713096
H                -2.7880147913       30.7002740544       75.0481079718
H                -2.9792625927       30.3529674337       72.6282093421
H                -4.6071978922       29.6835212196       72.8185678700
H                -2.7664367014       32.7847187031       73.9337547912
H                -6.3245733723       31.1572001734       72.2380689764
H                -3.7530869946       35.0354945048       73.8470021248
H                -7.2639091421       33.4129647169       72.0474683193
H                -5.9932409460       35.3643758650       72.8635232840
N               -12.8749649500       34.4842084926       79.3242254420
C               -12.6810195745       35.8593322792       79.7350298135
C               -12.3646253046       36.7390050478       78.5531272488
O               -11.2566156124       36.7289060002       78.0186542038
C               -11.6073693654       35.9315715911       80.8453798962
C               -10.2255162330       35.4706823564       80.3968208551
C               -11.5401780915       37.3546140046       81.4021864574
H               -12.1197427463       33.8474157549       79.5473366665
H               -13.6344490625       36.1981998901       80.1633238230
H               -11.9541892649       35.2607435428       81.6430431955
H                -9.5634774378       35.4210622202       81.2563324761
H               -10.2475698282       34.4920588802       79.9264787672
H                -9.8082117920       36.1796439987       79.6746784294
H               -10.8318146835       37.3850475306       82.2335198736
H               -11.1935308768       38.0403593294       80.6393263513
H               -12.5055884012       37.6776014366       81.7679242380
H                 9.6851051938       48.1770256053       70.6210606011
H                 8.2596318942       37.4234423024       79.2831461717
H                 6.3755540120       34.2177538860       76.1422451438
H                 3.8183457329       33.9717813447       79.0206876209
H                -0.2779895921       35.4408496418       82.7283760044
H                -1.4309245562       34.7330202338       85.8424790138
H                 6.2780461537       40.2669118358       87.4364895925
H                 4.5507085907       43.2583414298       87.4914290626
H                 8.0384689972       31.8938388911       72.7368077517
H                 5.3989235185       30.7518091677       72.9945601478
H                 3.6688948374       28.7601747165       75.8905472104
H                -2.2457663602       28.6560827802       74.3882288974
H                -5.5266250919       29.5213844420       75.5368228313
H               -13.6100333633       34.1521978902       79.7235290704
H               -13.0639540228       37.3511261876       78.1840106628
