 123 
 
N                67.5619582329       55.4500109603      210.7115873794
C                66.3791070422       56.0603605428      210.2364570296
C                65.2895910201       54.9976995822      210.0014734005
O                64.1028707465       55.1610222973      210.3948573396
C                66.5592625456       57.0045166158      209.1129123816
C                65.3209727546       57.3996161423      208.5564498297
C                67.4003124988       58.1956239676      209.4264396740
H                68.3231012242       55.6072421744      210.1420536563
H                66.0182315968       56.6362204562      211.0433594377
H                67.0397222793       56.4319116953      208.3459151446
H                65.4243747375       58.0745385345      207.7886232961
H                64.7260442465       56.6324944712      208.2413098304
H                64.7763994754       57.9039765098      209.3056677019
H                67.5669753123       58.7517417091      208.5954853696
H                66.9837327888       58.7086392143      210.1656022880
H                68.3407388686       57.8396173826      209.7493529737
N                63.8166359595       54.2372823599      213.4017634712
C                63.0787976184       55.2426265512      214.0069848708
C                61.6568302760       55.2047507824      213.4278075143
O                60.6198288462       55.2535182585      214.1428767885
C                63.7114153730       56.4981248055      213.9249809275
C                62.7183463586       57.5882560201      214.2966071235
C                64.9840293040       56.5465341489      214.6245721151
H                64.6242927745       54.4929737405      212.9474869143
H                62.9572128384       54.9900331187      215.0180739714
H                63.9602928726       56.7745972613      212.9308559867
H                63.1787997560       58.5383620738      214.2987956204
H                61.9225262378       57.6289555451      213.6964748561
H                62.4213589326       57.4367885767      215.2784815110
H                65.4710454014       57.4699027971      214.5097180671
H                64.8153770442       56.4492038208      215.6391121503
H                65.6088175619       55.8232032800      214.3129984835
N                62.4359171459       63.6123532976      207.7033931509
C                61.6574761449       64.0262691299      208.8383390830
C                61.1950253404       65.4429889059      208.7132395629
O                60.1357760038       65.7244599183      209.2141465005
C                62.4618423228       63.9220238872      210.1646155099
C                63.0875304516       62.6169663950      210.5423200755
C                62.4252445413       61.4027044173      210.4191685030
C                64.3121798157       62.5296647229      211.0745007932
C                62.9882475245       60.1592283732      210.7948407254
C                64.9413578765       61.3724090301      211.4409524252
C                64.3040645190       60.1628195196      211.3034358584
O                64.9014543531       59.0458534739      211.6570132794
H                63.4020069436       63.6264857125      207.9123459812
H                60.8758728532       63.3928351540      208.9205542221
H                63.2043389055       64.6289308357      210.1468241954
H                61.8080780098       64.1736649344      210.9366150452
H                61.4910541864       61.3972297884      210.0194496473
H                64.8338833962       63.4100868208      211.2434342602
H                62.5229371505       59.3125142879      210.6354050183
H                65.8686992762       61.3914418896      211.8490565182
H                65.7874330591       59.2288174569      211.8718487620
O                66.8856752399       59.3523071022      213.5734835628
H                67.6122533262       59.8975042722      213.3655261440
H                66.3926082163       59.9435566507      214.1185588385
N                68.8471951431       59.3689719858      218.0750517586
C                68.2069374314       59.2390004227      216.8171698999
C                66.7484108961       59.5534127986      216.9894035702
O                66.1318563791       60.2286095387      216.1768597974
C                68.3655894017       57.8729012888      216.0802927722
C                69.7876426444       57.5036314980      215.6652853961
C                70.3998878337       58.4483182594      214.6386042797
O                69.7293333960       58.8288796445      213.5541063428
O                71.5447331429       58.8763602866      214.9255986655
H                69.2520295230       58.5042489364      218.3917128248
H                68.6681228615       59.9339868855      216.1958639076
H                68.0339744398       57.1548512022      216.7429753457
H                67.7940211092       57.8834913022      215.2579169757
H                70.3923515939       57.5477012971      216.5188288665
H                69.7967889843       56.5624432251      215.3129047231
N                66.5337500341       63.3557356324      217.2986670561
C                66.6941426304       63.8688298356      215.9518139653
C                65.2965628138       63.8264833056      215.1125856445
O                64.9582424675       64.7376790218      214.3195410371
C                67.7443119750       63.2439070517      215.1452407677
C                68.1100684147       63.7193663888      213.8431663831
C                68.9108675694       62.6622912280      212.9495114359
C                70.2144177738       62.2841665517      213.5567181753
N                70.8202093324       61.3475437065      212.7381590794
H                67.1894815024       62.6837012679      217.4765108629
H                66.9132538633       64.8792780648      216.0193935068
H                68.6144532944       63.1889666146      215.7244488491
H                67.4757552873       62.2132960457      215.0229994428
H                67.2783122320       63.9876871443      213.3030985809
H                68.7228124168       64.5459504387      213.9091103136
H                68.3135526741       61.8482499779      212.8521413256
H                69.0768756557       63.0805197680      212.0269534551
H                70.7954101809       63.1156710915      213.7030636219
H                70.0460696145       61.8409053880      214.4741707505
H                71.7200694556       61.0873674217      213.0725844369
H                70.3464683569       60.5607857434      212.5568245849
H                71.0580476186       61.7600538067      211.8475402952
N                64.5404255529       62.7719021026      215.3321784064
C                63.3208328030       62.6400086805      214.6850913759
C                62.3652472831       63.6708498211      215.1583248555
O                61.7046208890       64.3579061236      214.4284517493
C                62.7810370089       61.2489009119      214.7733488177
C                61.3788193000       61.0980836030      214.5793620517
C                60.8274936997       60.8790963919      213.4507881722
C                60.4827370271       61.1578544305      215.6064814701
C                59.4274484447       60.6767818333      213.2906998671
C                59.1351781486       60.9439330093      215.4420023907
C                58.5507320163       60.7211188971      214.2069167231
H                64.7944429276       62.0457686799      215.9129645771
H                63.4413759479       62.7988668176      213.6608939348
H                63.2755657820       60.6195779303      214.1865510578
H                62.9687769349       60.9590110380      215.7896173138
H                61.3846042965       60.9410978045      212.5884197777
H                60.8190563320       61.2516637278      216.5725240719
H                59.0617325950       60.5585130825      212.3110832435
H                58.5073808068       60.9298847021      216.2756585850
H                57.5870789330       60.6304129860      214.1177219826
H                67.7604734420       55.7741426816      211.5273878078
H                65.5144481221       54.1480610946      209.5244474850
H                64.0720478601       53.6371615661      214.0219406990
H                61.5211860077       55.1384595065      212.4392701608
H                62.2037592851       62.7749605391      207.4691366770
H                61.7588173470       66.1120814272      208.2290352969
H                69.5069507075       59.9781479408      218.0148250949
H                66.2531466456       59.2078047220      217.7864408213
H                66.6328844723       64.0271636675      217.8897311448
H                62.2420225089       63.8260365815      216.1384945982
