 234 
 
N               -13.4751301331       74.8284014677       11.7265539350
C               -13.9154632167       73.4900569466       12.0210954127
C               -14.1951034282       73.2226452030       13.5097559774
O               -14.6277492409       72.1289058225       13.8313336058
C               -13.1426807169       72.3609052882       11.3752208092
O               -14.0268125862       71.6884518284       10.4847708961
H               -12.4841417580       75.0440555258       11.7395681259
H               -14.9237998087       73.4256928386       11.5787057649
H               -12.2791632264       72.7686047278       10.8331204100
H               -12.7833182114       71.6842162274       12.1579401625
H               -13.7546975038       70.7616841881       10.4212062159
N               -14.0591353919       74.2485763399       14.3646033265
C               -14.7759955292       74.3402843937       15.6362667266
C               -16.2679282252       74.4004732504       15.3386773102
O               -16.9868977382       73.4058398572       15.3590067421
C               -14.3717005667       75.5511692497       16.4872389013
H               -13.4958656039       75.0494026142       14.1114025656
H               -14.6096177554       73.4111684801       16.2007334260
H               -15.0928571364       75.6974511226       17.2850759657
H               -13.3968626557       75.3646954586       16.9342930218
H               -14.2905006205       76.4548495626       15.8880354901
N               -16.7374319020       75.6197682320       15.0906057678
C               -18.1526614116       75.8486505784       15.2442351643
C               -18.9273360897       74.7716005150       14.4976314372
O               -19.9259298154       74.2633438319       14.9965289248
C               -18.5392006816       77.2233532196       14.7468987104
H               -16.1166879093       76.4134927911       15.0369169422
H               -18.4211304781       75.7491549361       16.3084239981
H               -19.6056798338       77.3742543010       14.8801588411
H               -18.0036625939       77.9872063205       15.3051591427
H               -18.2918377864       77.3177019597       13.6915362406
N               -18.4821451275       74.5084814479       13.2608759090
C               -19.1057183684       73.5221298112       12.3815019443
C               -19.5709347280       72.2897777155       13.1623024019
O               -20.7246076183       71.8702386679       13.1518595481
C               -18.1182419420       73.0509550081       11.3163597958
H               -17.6134723755       74.9221312342       12.9431845745
H               -19.9939135490       73.9671158223       11.9138158956
H               -18.5938817269       72.2894334691       10.7051170460
H               -17.8332578408       73.8885940086       10.6848371862
H               -17.2262776577       72.6343287562       11.7737634863
N               -18.5565516886       71.6692733536       13.7707255316
C               -18.7225250200       70.4765997678       14.5725248806
C               -19.7826525452       70.6737958886       15.6621185812
O               -20.7829575065       69.9628004573       15.6584591826
C               -17.3823311610       70.1077295720       15.1960589508
H               -17.6738575975       72.1497042161       13.8911990012
H               -19.0925116052       69.6642020787       13.9322885410
H               -17.5062991133       69.2470370417       15.8482338353
H               -16.6715513990       69.8569305832       14.4127843280
H               -16.9777118435       70.9351237809       15.7700660281
N               -19.4469640913       71.6268553253       16.5497467678
C               -20.2315135220       72.1482968363       17.6544882973
C               -21.6026223322       72.6758092463       17.2337255960
O               -22.3398362876       73.1895452584       18.0589371070
C               -19.4429502261       73.2583517554       18.3395118282
C               -19.9830357962       73.7233266751       19.6908558223
C               -19.1881462335       74.9980927433       20.2845137527
O               -18.4230693250       75.6264499657       19.5157728835
O               -19.3921921663       75.2977928426       21.4840500426
H               -18.6674887126       72.2168875040       16.2806023619
H               -20.4208714114       71.3310679975       18.3659366850
H               -18.4081218909       72.9295140557       18.4721801629
H               -19.4223154926       74.1231562554       17.6692561709
H               -21.0233015999       74.0277106573       19.6002779602
H               -19.9247171905       72.9226231427       20.4305273607
N               -21.9904681576       72.3931783354       15.9791158296
C               -23.3376437489       72.6656789328       15.5682562877
C               -23.9545668015       71.5667602501       14.7263732093
O               -25.1694799239       71.3904051441       14.7639284994
C               -23.4352153693       74.0460276274       14.9530628507
C               -24.7528247440       74.1789098777       14.2068378393
C               -23.2719547774       75.0672394407       16.0752089050
H               -21.2974746073       72.3527903779       15.2485263683
H               -23.9388139129       72.6820944995       16.4883944304
H               -22.6076249911       74.1635522560       14.2437551824
H               -24.8826331419       75.2020663408       13.8596312758
H               -24.7738052705       73.5230251459       13.3407337585
H               -25.5868207239       73.9208103377       14.8529797056
H               -23.4085335315       76.0736245646       15.6821445859
H               -23.9957873403       74.8984934919       16.8650915577
H               -22.2740880354       75.0146952480       16.4972809170
N               -23.1536775349       70.7529382875       14.0402077257
C               -23.7185445217       69.4423438192       13.7718410356
C               -23.8917474673       68.6990298807       15.1119241514
O               -24.5964611252       67.7054941394       15.1788526390
C               -23.0326461839       68.6157744740       12.6539909230
C               -24.0665105004       68.0755389512       11.6375098403
C               -23.5521653622       67.3267453814       10.3313703484
O               -22.7007933457       66.4282353777       10.4783244286
O               -24.0910651106       67.6700941163        9.2553367004
H               -22.1610539958       70.9040087833       13.9392706987
H               -24.7502607184       69.6274379938       13.4374990337
H               -22.3359014008       69.2747180721       12.1308088687
H               -22.4604475542       67.7915636190       13.0764995407
H               -24.7247598680       67.3694820872       12.1491393332
H               -24.6807683943       68.9033520150       11.2736581947
N               -23.3480475089       69.2826770470       16.1960730808
C               -23.6037893743       68.7455999073       17.5326794805
C               -25.0628542286       69.0250635967       17.8465377887
O               -25.8750609513       68.1405480478       18.0553462263
C               -22.7559446725       69.3955859325       18.6525236322
C               -21.5249752414       68.5821894075       19.0580848343
C               -21.8705997389       67.2864062285       19.8938506873
O               -21.1556075174       67.0917930623       20.9014938064
O               -22.7991714184       66.5598931405       19.4862101892
H               -22.5087214182       69.8352015496       16.0713682416
H               -23.4588686906       67.6584739737       17.5558608521
H               -22.4490625290       70.3955451630       18.3375561625
H               -23.3793014745       69.4993864792       19.5442717521
H               -20.9704990929       68.2666806467       18.1690687340
H               -20.8582074431       69.1797521925       19.6814581553
N               -25.3490871666       70.3368133264       17.8873545703
C               -26.6235550420       70.8128343238       18.3599401125
C               -27.6965613724       70.1587044954       17.5188490992
O               -28.5943639929       69.4776992784       18.0054591189
C               -26.7431363366       72.3234227070       18.3133959146
C               -27.5970188453       72.7467816801       19.4908398368
C               -27.4248564815       74.2257629020       19.7997604110
N               -27.6576799665       74.4989245324       21.2117678466
C               -28.6710647397       75.1587770331       21.7658852453
N               -29.7120729257       75.5775312163       21.0567596898
N               -28.6708407775       75.3619299228       23.0899221570
H               -24.6073968462       71.0071211998       17.7580422021
H               -26.7695179135       70.4479130858       19.3869187220
H               -25.7442757423       72.7565489285       18.4164315873
H               -27.1649260851       72.6577619106       17.3656321163
H               -28.6412561684       72.4882331982       19.3250164564
H               -27.2574145654       72.1935869133       20.3701140715
H               -26.3870400884       74.5078910571       19.5990653513
H               -28.0622625177       74.8520524279       19.1804900377
H               -26.9224509407       74.1745450385       21.8262510550
H               -29.7915758470       75.3948247205       20.0697089043
H               -30.4267041571       76.1561471445       21.4681140051
H               -27.8420316361       75.1869554493       23.6347185916
H               -29.3564050962       75.9830638701       23.4913214777
N               -27.6209122750       70.3349994712       16.2026802735
C               -28.7636228769       69.8845708313       15.4427685012
C               -28.7846642908       68.3809350369       15.1144091073
O               -29.6226954220       67.9214915640       14.3549443013
C               -28.9584328413       70.8542605203       14.2817561954
O               -28.8015941241       72.1243592323       14.8914586520
C               -30.3190859179       70.7038780454       13.6065147408
H               -26.8905219166       70.8651107031       15.7440749651
H               -29.6349897837       70.0085253747       16.1102143610
H               -28.1505618868       70.6895631808       13.5494943191
H               -29.0315440289       72.8030346082       14.2434454118
H               -30.3448143178       71.2923776856       12.6931683152
H               -30.4933266108       69.6620858841       13.3588634483
H               -31.1048532396       71.0477073289       14.2723429594
N               -27.9275715232       67.6216229187       15.8187222881
C               -27.9227803407       66.1658214572       15.8980437321
C               -28.6373945307       65.6576642184       17.1584709799
O               -28.8954478598       64.4569490175       17.2755861079
C               -26.4632610707       65.6620274146       15.9065697486
C               -26.2527317338       64.1400167075       15.9429161090
C               -26.2936172873       63.4572468721       14.5561895014
N               -25.3900397227       62.3047865493       14.4606350943
C               -24.1543270845       62.2871810324       13.9513397440
N               -23.5165758619       63.4196190552       13.6558680383
N               -23.5127620966       61.1228012664       13.7929630288
H               -27.1911789613       68.0653461600       16.3512199457
H               -28.4667864652       65.7791624502       15.0295026631
H               -25.9650148902       66.0859488578       15.0375826911
H               -25.9851673549       66.1210696801       16.7736418601
H               -25.2570396001       63.9758988881       16.3547904116
H               -27.0070213477       63.6872391624       16.5835831603
H               -27.2982309418       63.0915939013       14.3480882016
H               -26.0377810963       64.1793789356       13.7781331260
H               -25.7913470319       61.4172976063       14.7300080505
H               -23.9623789560       64.3133335474       13.7919428760
H               -22.6664137068       63.4269645192       13.1182739538
H               -24.0119527134       60.2500349757       13.8545142127
H               -22.6259497174       61.1159992860       13.3154520261
N               -28.9313249666       66.5490505361       18.1156323384
C               -29.8327093019       66.1643300981       19.1819885622
C               -31.2657272195       66.4273922474       18.6970647049
O               -32.1777842636       65.6614804963       18.9905634781
C               -29.4515447955       66.6874269381       20.5720474397
C               -27.9928378046       66.4131706216       20.9686886896
C               -27.4309523808       65.0145923894       20.6291222444
C               -26.0857629520       65.1597372853       19.9028367325
N               -25.4949496521       63.8475548216       19.4800933040
H               -28.6239693603       67.5153249396       18.0657687147
H               -29.8024283041       65.0664732221       19.2297724076
H               -29.6130449190       67.7645251069       20.6145120148
H               -30.1339161508       66.2292540292       21.2886520056
H               -27.3670912105       67.1549714301       20.4697471953
H               -27.9066264449       66.5882796016       22.0400748287
H               -27.3030670523       64.4374088760       21.5431012757
H               -28.1130500763       64.4666213019       19.9831208807
H               -26.2101266837       65.7809579839       19.0156035462
H               -25.3611585303       65.6564696254       20.5488404616
H               -24.5475250054       64.0315281976       19.1185481452
H               -25.4182769474       63.2181013312       20.2937471520
H               -26.0759362036       63.3937299373       18.7587391560
N               -32.1066323061       65.2655946807       16.1678183555
C               -32.3957843305       63.8924578914       15.8820014660
C               -32.6717575524       63.0996594997       17.1753154426
O               -33.7936350572       62.6201815081       17.3058924954
C               -31.2966692903       63.2323743093       15.0616121876
C               -31.7205172212       61.8042487127       14.6914185470
C               -33.0075258061       61.7800929038       13.8632838818
O               -34.0740643478       61.3651146651       14.2882406778
N               -32.8705836661       62.2820840348       12.6193067743
H               -31.2234577248       65.4463156450       16.6180811412
H               -33.3387279983       63.8726290653       15.3237471745
H               -31.1356992678       63.8274998166       14.1616677694
H               -30.3708787856       63.2108560468       15.6388729269
H               -30.9336737304       61.3247465749       14.1090125437
H               -31.8960384753       61.2144185804       15.5911511620
H               -31.9554236103       62.4626368685       12.2412339377
H               -33.6416165704       62.2104426254       11.9749989591
N               -31.7082355084       62.9627183012       18.1092820116
C               -31.8808880531       62.0972362557       19.2920500461
C               -33.1642141939       62.4466750600       20.1285208690
O               -33.5641361998       61.7079147143       21.0206762638
C               -30.5365459251       61.8586359073       20.0600752880
C               -30.2887671873       62.5832037932       21.4027219954
C               -29.2057010502       61.9589105354       22.3014558627
O               -29.0082026117       60.7611537012       22.4295254352
N               -28.4153076460       62.8498622943       22.9484374661
H               -30.7949155932       63.3741720355       17.9529922533
H               -32.1789053659       61.1132247662       18.8932341299
H               -30.4861918258       60.7909897926       20.2812244022
H               -29.7270333483       62.0935660638       19.3692545893
H               -30.0432974620       63.6310300383       21.2496696638
H               -31.2086930608       62.5254199388       21.9930531371
H               -28.7355307204       63.7765016392       23.2079239649
H               -27.7963581676       62.4422320255       23.6351492491
H               -13.7393229426       75.0558203241       10.8968052844
H               -31.4639559986       67.2305839803       18.1352921607
H               -32.0968860368       65.7364934944       15.4009028989
H               -33.6723961525       63.2864166265       19.9372482927
