 493 
 
N                 3.5399466291       92.4928969983       -0.6868023464
C                 4.5712225182       91.6166728805       -0.1604684022
C                 4.9924729738       92.1029058330        1.2469554203
O                 4.9964667923       91.3432325261        2.2033516322
C                 5.7193362006       91.5903801161       -1.2072823071
C                 5.5650644868       90.5568146119       -2.3716778875
C                 4.1354003991       90.3994755156       -2.9135759530
C                 6.5060834400       90.9579019320       -3.5133452867
H                 3.7005632446       92.8032903027       -1.6519673383
H                 4.1804223698       90.5995067910       -0.0143287227
H                 5.7984681628       92.5817230256       -1.6450541186
H                 6.6528137124       91.3602436822       -0.6977216306
H                 5.8579452807       89.5771807481       -1.9800893545
H                 4.1351712282       89.6180060549       -3.6636032251
H                 3.4332743857       90.1152415612       -2.1338625111
H                 3.7952619007       91.3208303545       -3.3867996245
H                 6.4947169324       90.2108699743       -4.2961312053
H                 6.1845008598       91.9018966523       -3.9452329749
H                 7.5211278734       91.0664654377       -3.1478637869
N                 4.5149339772       89.2103703588        4.3086232824
C                 5.5686226837       88.7237316829        5.1738718405
C                 5.3165876519       88.9090761087        6.6851964366
O                 6.0119860482       88.3690793864        7.5298753356
C                 6.9236952097       89.3504367943        4.8702157117
C                 7.9734905252       88.5767667465        5.6634780070
O                 8.0311906543       87.3721654958        5.6532846610
N                 8.8041818744       89.3303449218        6.3970742925
H                 4.7082963681       90.0244676654        3.7381960862
H                 5.6595619342       87.6282360152        5.0330065265
H                 7.1462919720       89.2351091143        3.8077850404
H                 6.9119685364       90.4079112364        5.1280060614
H                 9.5807329982       88.8774588036        6.8517668398
H                 8.7997530720       90.3302782191        6.3209685933
N                 5.1029382017       79.1283221838       -5.5773542445
C                 6.1456047603       78.6148027669       -4.7906233112
C                 6.6123371909       77.3081910483       -5.4708946698
O                 7.5438112572       77.4277396694       -6.0744317554
C                 5.6910433805       78.3937461582       -3.3802337894
C                 6.7888945529       77.7497629692       -2.5911073053
C                 5.0704934380       79.6503795146       -2.7771867583
H                 4.1330408238       78.9953691771       -5.1256198244
H                 6.9790373254       79.3189131793       -4.8120829027
H                 4.8547424257       77.6336549153       -3.4026708227
H                 6.5428823335       77.6519561793       -1.5220776595
H                 7.0252996796       76.7725082750       -2.9639647274
H                 7.6958983894       78.3628185048       -2.6305263206
H                 4.7946213855       79.4711807020       -1.7275324439
H                 5.8060741817       80.4494457861       -2.7703469225
H                 4.1945708434       79.9759741324       -3.3167208551
N                 8.7287941348       77.9752943101       -8.5703795652
C                10.0804650491       78.3486240191       -8.3341883348
C                10.9126600813       77.1911943119       -7.7889942424
O                11.9756972664       76.8962159477       -8.2325550134
C                10.1477682498       79.5521782214       -7.3752876774
C                 9.3994231943       80.8019896621       -7.8704874715
C                10.0007771118       81.6334086924       -9.0087106441
N                11.4045236703       82.0879360886       -8.8116557199
C                11.8552944476       83.2016474879       -8.2290850074
N                11.0529485585       83.9599536597       -7.5019204734
N                13.1711729432       83.6147874984       -8.4128499897
H                 8.0193608452       78.1914932950       -7.9091633027
H                10.5319952553       78.6098651697       -9.3104946832
H                 9.6950109751       79.2356992188       -6.4442245809
H                11.2053831923       79.7764725217       -7.2161678376
H                 8.4006744767       80.5134599576       -8.1788767736
H                 9.2928565031       81.4536367169       -6.9812562102
H                10.0174571354       81.0422226357       -9.9150335063
H                 9.3925286234       82.5172915796       -9.1634383308
H                12.1011291416       81.4745858181       -9.2445237072
H                10.0522909597       83.7077663563       -7.4702100641
H                11.2779762377       84.8536542286       -7.1204273245
H                13.7987930621       82.9996388406       -8.7606869205
H                13.4413147353       84.4164367382       -7.8359678614
N                10.4008601003       76.5730294896       -6.7647527200
C                11.0439075730       75.4222328745       -6.1845922711
C                11.5482590340       74.5513061156       -7.3569045186
O                12.5989493917       73.9536811288       -7.3523700161
C                10.0638199473       74.5499295187       -5.3249955153
C                 9.3392179550       75.2446405814       -4.1259382418
C                 8.3038651952       74.4151114127       -3.3163556832
N                 8.7326866886       74.3524944140       -1.9431061564
C                 9.4327301172       73.3297816117       -1.3364826010
N                 9.3111153757       72.0349717556       -1.6525634070
N                10.2157088031       73.6436753008       -0.2657890282
H                 9.4339361466       76.7696041904       -6.4626274595
H                11.8988618171       75.7143605548       -5.5851594698
H                 9.3209312966       74.1318503899       -6.0134622506
H                10.6571356348       73.6940639198       -4.9550231923
H                10.1401083527       75.5733031342       -3.4485296957
H                 8.8793840113       76.1395320451       -4.5128078232
H                 7.3418909139       74.8411059725       -3.3437429235
H                 8.2517621089       73.3969019387       -3.7285403042
H                 8.9507303494       75.2550315365       -1.5152367478
H                 8.7456075759       71.7670071947       -2.4222074685
H                 9.9450473264       71.3547289567       -1.2400141447
H                10.3995302613       74.6173170835       -0.0802434633
H                10.8669072867       72.9484271753        0.0934726162
N                14.3198720130       76.4663092169       -9.7993355624
C                15.4717111380       76.4971296474       -8.9418184114
C                16.1197554591       75.1253149200       -8.8496211562
O                17.2669957742       74.9470626895       -9.2088788204
C                15.0691904475       76.9757473494       -7.5571781669
C                15.7989005715       78.2063312849       -6.9919525983
C                15.2352724941       79.6100167564       -7.4060599225
O                15.5101213502       80.5693136046       -6.6148277259
O                14.5850385984       79.6730589695       -8.4813478829
H                13.4488623512       76.7664979979       -9.4069878126
H                16.2276626349       77.1640264678       -9.3760698967
H                14.0131604181       77.2106895666       -7.5570293448
H                15.2199476455       76.1533781522       -6.8293610383
H                15.8021889218       78.1765278845       -5.8915072157
H                16.8607062909       78.1889800974       -7.2965463651
N                 3.8447111267       88.8708843878       -9.5729139109
C                 4.4574320763       89.5893332251       -8.4803833754
C                 5.4513397425       88.7099496077       -7.7318116926
O                 6.2114827517       89.1115947395       -6.8733681702
C                 3.4442610466       90.3593361165       -7.6267828779
C                 4.0808200732       91.5523475456       -6.7989842436
C                 3.3079916128       92.8371385536       -6.2418870650
O                 3.6600239151       93.4926035038       -5.2468237658
N                 2.2173460961       93.2249039875       -6.9647907927
H                 2.8459434337       88.6850677597       -9.6034055787
H                 5.1240452370       90.3676739121       -8.9509459411
H                 2.7054202417       90.7985029559       -8.3213453215
H                 2.9272386496       89.7192972253       -6.9389620143
H                 4.6047083953       91.1247214600       -5.9429191322
H                 4.8763628303       92.0261944485       -7.4013352409
H                 1.9224735570       92.7413544938       -7.7607748294
H                 1.7711487657       94.0721206771       -6.6650956733
N                 5.4882766811       87.4560085591       -8.1866413973
C                 6.3426694066       86.3679544854       -7.6674461860
C                 7.7111151469       86.3206910569       -8.3241299186
O                 8.6907565503       86.0138029589       -7.6640056281
C                 5.7104092746       84.9888859067       -7.8549036825
H                 4.6893750898       87.0891308556       -8.7035958118
H                 6.5119595006       86.5752132097       -6.5924560787
H                 6.3282823537       84.2560881686       -7.3534823416
H                 4.7151813937       84.9852034868       -7.4010305093
H                 5.6370724971       84.7682699400       -8.9019387987
N                 9.3819248709       88.4601563000       -8.8800925814
C                10.0780974690       89.4834858505       -8.1567808686
C                11.0142920346       88.6957084273       -7.1881341444
O                12.2485370327       88.6416623476       -7.3887145888
C                 9.0504925066       90.5015461790       -7.6243996167
C                 8.6006689118       91.4122074531       -8.8338729855
C                 7.7408310812       92.7957147404       -8.7088667918
O                 7.4950207822       93.2840969751       -9.8340576794
O                 7.3863121863       93.2962487271       -7.5833522477
H                 8.3814803942       88.5273150989       -8.8774718836
H                10.7763678105       90.0124859062       -8.8316923079
H                 8.1931704421       90.0223158601       -7.1820519287
H                 9.5145713023       91.1595360570       -6.8675538684
H                 9.4828287034       91.7684060035       -9.3463046111
H                 8.0135606527       90.8200871925       -9.5133165724
N                10.3316762118       88.0636561762       -6.1681116510
C                11.0741099987       87.7274082228       -4.9823015342
C                11.8032767739       86.3653249446       -4.9989192471
O                11.8945490586       85.5605335214       -5.8807675326
C                10.2986490743       88.1487937307       -3.7328647638
O                11.1602580696       88.1934507609       -2.6325227716
H                 9.3452039162       88.1404300644       -6.1561545126
H                11.9632814281       88.4281407999       -5.0027038158
H                 9.8854770930       89.1466860750       -3.9014023368
H                 9.4867794567       87.4536132301       -3.5538898427
H                10.9544131329       87.5243086021       -1.9609785537
N                12.6069097711       86.2406091743       -3.9499539221
C                13.5211553931       85.1613003747       -4.0561887743
C                12.8120921020       84.0234237397       -3.5014769714
O                12.2790865943       84.1620980457       -2.3848429181
C                14.7591567051       85.5114514654       -3.2036509369
O                14.2403279354       85.7339450361       -1.8942923983
C                15.4538623898       86.7334069292       -3.8180454571
H                12.6083621931       86.8821872268       -3.1518789711
H                13.8285916321       85.0255810054       -5.0962769842
H                15.4641739861       84.6707204735       -3.1729380405
H                14.8294745314       86.3880586538       -1.4601274542
H                16.3126666457       87.0163642517       -3.2097535299
H                15.7762535757       86.5168739527       -4.8137879018
H                14.7608383678       87.5823451099       -3.8322886591
N                12.7220645443       82.8957855476       -4.1147994865
C                12.1602327129       81.8206970195       -3.3464668116
C                12.4860305888       81.9966411682       -1.8611024356
O                11.6142991385       81.9687811187       -0.9596551286
C                12.5661649940       80.4731198435       -3.8745876835
C                11.9989463732       79.2638148843       -3.1197347513
C                11.6976016809       78.1481471996       -4.1164652860
C                12.9307895817       78.7440698980       -1.9884941936
H                13.2512036484       82.6534752584       -4.9602195015
H                11.0510592084       81.8778737592       -3.4175997538
H                12.2776722982       80.3990996713       -4.9237828687
H                13.6823568081       80.4012796812       -3.8743395796
H                11.0687159310       79.5659416993       -2.6402380992
H                11.4039486492       77.2569637832       -3.5732215956
H                10.9254261117       78.4354579765       -4.7954989260
H                12.6128350494       77.9166135146       -4.6860490478
H                12.4415485283       77.9298535393       -1.4760015026
H                13.8685156523       78.3792156004       -2.4206990442
H                13.1512602477       79.5185812237       -1.2709494885
N                13.7019905723       82.0451537033       -1.4589303541
C                14.0701507414       82.2079605372       -0.0601226654
C                12.8582820845       82.6469750168        0.7731681685
O                12.4202163174       82.0221678169        1.6856358106
C                15.3081384778       83.2238607547       -0.0754263982
C                15.3817521660       84.3608639848        0.9559148381
C                15.7056350593       83.9442539808        2.4146855206
O                16.7185924079       83.2658496368        2.5881382887
O                14.9339825260       84.3847854383        3.2994881756
H                14.4876419657       81.9752211830       -2.1247302764
H                14.4358145084       81.2557013776        0.3588244346
H                16.2226906825       82.6484742687        0.0272833634
H                15.3014042437       83.7003965500       -1.0580509166
H                16.1913908775       85.0158830125        0.6549920607
H                14.4540039147       84.9263802502        1.0189449791
N                12.4909098966       83.8511055908        0.3611302365
C                11.5708767790       84.6786271142        0.9857650521
C                10.1680059390       84.1893601229        0.7426142151
O                 9.3178842765       84.1161679512        1.4852937359
C                11.5022802299       86.0947694867        0.3745461775
O                11.3120146606       86.0729280695       -1.0075675667
C                12.7328488686       86.9521589623        0.7393525178
H                13.0070232957       84.2570067321       -0.4413323873
H                11.7189211203       84.7722360310        2.0720869890
H                10.6210258392       86.5950190576        0.8191654881
H                12.0528103322       85.6593315239       -1.4474186080
H                12.5854430494       87.9751711571        0.3833151171
H                12.8520349455       86.9657390095        1.8172868942
H                13.6195343198       86.5403235918        0.2882689765
N                 9.9704812742       83.9682005636       -0.5695014896
C                 8.6694435607       83.6264437696       -1.0212186558
C                 8.1658208252       82.4854751017       -0.1316131620
O                 7.3111202294       82.5132552159        0.4966980996
C                 8.7423396968       83.3839748475       -2.4818521605
C                 9.0911994025       84.6756071067       -3.2384794078
C                 9.1487469649       84.4248933453       -4.7518931041
C                 8.0987922909       85.7710460296       -2.9123637845
H                10.7504738223       83.9497428778       -1.2218035045
H                 7.9821307621       84.4834713409       -0.7805485545
H                 9.4686915888       82.6082245798       -2.6675321790
H                 7.7602583560       83.0436329230       -2.8456609058
H                10.0869739847       85.0165937252       -2.9002097652
H                 9.3303015827       85.3413097636       -5.2994654331
H                 9.9895916002       83.7463918793       -4.9629761710
H                 8.2354961614       83.9758855432       -5.0796227287
H                 7.9071489907       86.4224281637       -3.7590078272
H                 7.1170533755       85.3250632524       -2.6735000518
H                 8.3906859415       86.3664842725       -2.0538334536
N                 8.9863191740       81.4191108383       -0.2480418588
C                 8.8728939390       80.3422908301        0.6400511259
C                 8.3730476634       80.6513345778        1.9670170083
O                 7.6408112819       79.8856043911        2.7079786893
C                10.2765105294       79.7938255683        0.8852456903
C                10.2488119171       78.3708173874        1.4033057918
C                 9.4451887263       77.5184589428        0.3706464387
O                10.0807250117       76.6910136219       -0.3142345050
O                 8.1996360059       77.7058213279        0.2889016410
H                 9.8992230739       81.5758841507       -0.6709735559
H                 8.2508850946       79.5416470203        0.1942117506
H                10.8321030338       79.7779593361       -0.0744562773
H                10.8457030703       80.4356760362        1.5621257269
H                11.2615538591       77.9514157403        1.5009508259
H                 9.7544307878       78.3281517401        2.3751143571
N                 8.8616934223       81.7442665655        2.5138578981
C                 8.8439461336       81.9453659715        3.9281078199
C                 7.8248306706       82.8031248367        4.1219146612
O                 7.4246066032       82.9832470019        5.6455423761
C                10.3137697428       82.4089628869        4.3110132288
C                10.4177336255       83.4704574577        5.4206526876
C                11.3258271252       84.6601381993        4.8895682226
O                12.3260986724       85.0118816513        5.5758350309
O                10.9201879579       85.1852867547        3.8117571531
H                 9.4757691578       82.2981897820        2.0102957756
H                 8.7056198495       81.0017087279        4.4456343161
H                10.9163568151       81.5586143964        4.6041282785
H                10.7685175696       82.8456352278        3.4251857229
H                 9.4467032490       83.9347225207        5.6330719631
H                10.8301524121       83.0839649309        6.3398084253
N                 7.1395498929       83.2741353828        3.3133790828
C                 5.8681354821       84.0502220085        3.5092287063
C                 4.5212285720       83.2995146229        3.2181389932
O                 3.5083872150       83.6302270677        3.7737714777
C                 5.9184969924       85.3370461515        2.6980874060
C                 5.3775650210       85.2459848390        1.2359906216
S                 5.3001964398       86.9750160875        0.4825590222
C                 7.1359841522       87.4131274889        0.3913004182
H                 7.4338253667       83.2162513445        2.3717096271
H                 5.8539582724       84.3151410530        4.5661339421
H                 5.3037648280       86.0951375758        3.2169701289
H                 6.9575033349       85.6939466947        2.7044684186
H                 6.0138276294       84.6285011912        0.6255124839
H                 4.3685529627       84.9023464518        1.2379329658
H                 7.2009675315       88.2361314831       -0.2957983062
H                 7.5007635305       87.6845719415        1.3807478929
H                 7.6690432768       86.5378114876        0.0391762492
N                 4.6021111155       82.3070991263        2.3329555372
C                 3.8923849539       81.0782868344        2.4292794980
C                 4.0240191374       80.4087716394        3.7657859355
O                 3.0972497467       80.2490657698        4.3937740169
C                 4.3665266602       80.1779538864        1.3418655733
C                 3.8855409766       78.7921593595        1.5236237212
C                 2.3062610996       78.6981955668        1.3413739653
C                 4.7223506046       77.7398975795        0.6415930278
H                 5.5787341356       82.1896150867        1.9300016170
H                 2.8246881273       81.3398038167        2.2916377979
H                 4.0638473884       80.5491337127        0.3319263994
H                 5.4729225605       80.1546668072        1.3306297669
H                 4.0623463259       78.4571117638        2.5503308547
H                 1.9940592042       77.6881698457        1.5601176358
H                 1.8590422832       79.3832114381        2.0031979684
H                 2.0637091069       78.9321301219        0.2918140419
H                 4.3992774173       76.7354669694        0.9242699884
H                 4.4926260055       77.8768710850       -0.4071016735
H                 5.7524976299       77.8684571602        0.8442261895
N                 5.1957447280       80.1140629134        4.2913781563
C                 5.2908246729       79.6141934710        5.6246589034
C                 4.1493914302       80.1130898932        6.4991358184
O                 3.5529505513       79.6424679262        7.1336545727
C                 6.5777635372       79.9482308769        6.3688463204
C                 7.7306014371       79.0218895783        6.0269842381
C                 8.6718823685       78.7758658755        7.3334038094
O                 7.9091625396       78.5933720917        8.3911302181
O                 9.8898064493       78.7379698784        7.3246652190
H                 6.0667663717       80.0970775696        3.6999639534
H                 5.1645715777       78.4981419895        5.5957508057
H                 6.8775311170       80.9709962154        6.1909512296
H                 6.3709121606       79.8057395302        7.4313678367
H                 7.3737950609       78.0181797872        5.7781782534
H                 8.3801010185       79.3507141081        5.2266497000
N                 4.2337462211       81.5162211363        6.3113477879
C                 3.4979812650       82.4656467418        7.1901211038
C                 1.9216516466       82.2065993047        7.0418528528
O                 1.1628140126       81.7860708953        7.8363739570
C                 3.9360912935       83.9868942068        6.8466716301
C                 5.3662800179       84.4497529635        7.2482290510
C                 5.5067812961       85.3488698189        8.4722168548
C                 6.9958446254       85.7009672549        8.6202130348
N                 7.2560022584       86.7835054244        9.6457951479
H                 4.9464353452       81.9335324098        5.8186978272
H                 3.7472309616       82.2556256205        8.2425659587
H                 3.7817058378       84.1123105477        5.7971687752
H                 3.1920354153       84.6144110159        7.3728494509
H                 6.0046966329       83.5758179911        7.3463979745
H                 5.7453081892       85.0195926201        6.4005405561
H                 4.9280898782       86.2537443429        8.3119520853
H                 5.1681337680       84.8109011804        9.3598866410
H                 7.5515476764       84.7978997957        8.8900088591
H                 7.3706785533       86.0582279494        7.6607547749
H                 8.2641864801       86.8666242596        9.7673037329
H                 6.8483196913       87.6386716911        9.2454734184
H                 6.8452562162       86.4868862755       10.5492634891
N                 0.5479370755       79.9997702201        5.5996191348
C                -0.0655671108       78.7820557995        5.6724504404
C                -0.4777189909       78.6433008796        7.0951263471
O                -1.5577485744       78.1856037057        7.3947523043
C                 0.7436500802       77.7812914976        4.9057057100
C                 2.1575274647       77.4104413529        5.3984498680
C                 2.8045458965       76.2734064262        4.4684948352
O                 2.1659214230       76.0401313805        3.3783226031
O                 3.8958711018       75.7353512224        4.8234269794
H                 1.5388174524       80.1247581245        5.3085285571
H                -1.0169981135       78.8308082226        5.1186535612
H                 0.1858214407       76.8086932080        4.8584894336
H                 0.8529462730       78.0875745671        3.8718485091
H                 2.8186988132       78.2599732790        5.3591845646
H                 2.1602645784       77.0173595405        6.4219888909
N                 0.2648455855       79.1771954880        8.0277045600
C                -0.2347866175       78.8904171430        9.3529603254
C                -1.5476425362       79.5640151439        9.5979193277
O                -2.4734998767       79.1083599933       10.2015289291
C                 0.6940323295       79.2186949089       10.5555477240
C                 2.0239310299       79.8959594744       10.1367091185
C                -0.0332112295       79.9893880887       11.6625531056
H                 1.2766555747       79.3417761002        7.9072093758
H                -0.4344413920       77.7926823805        9.4081587895
H                 0.9979395132       78.2556193195       11.0229632852
H                 2.6039814940       80.1088050207       11.0442610300
H                 2.6116674829       79.2494551107        9.5116073387
H                 1.8190152255       80.8248597619        9.6258368652
H                 0.6622772473       80.1024106501       12.5243147224
H                -0.2725870827       81.0032399253       11.3419166716
H                -0.9007827209       79.4898535489       12.0077856340
N                 4.1415730821       76.3523676079       13.7427140291
C                 4.6461913140       75.4281572387       12.7348068393
C                 4.1974336906       74.0343435095       13.1755565047
O                 3.3349404905       73.2721666159       12.6662907391
C                 6.1816538154       75.4630039376       12.5331335119
C                 6.7141948009       76.8454929981       12.0115701160
C                 8.2320881533       76.8981661816       11.8070963221
C                 8.8671235854       78.2826137719       11.8915227211
N                 8.5097080690       79.1806292267       10.7673685221
H                 4.8961219451       76.9360081233       14.1398503952
H                 4.1418172942       75.6662814681       11.7558034974
H                 6.6855552030       75.2396881664       13.4380575751
H                 6.4212134796       74.7176640671       11.7647524718
H                 6.2066853066       77.1013769096       11.0680637893
H                 6.4183844792       77.6238030749       12.7254180440
H                 8.6959585865       76.2502527993       12.5520821450
H                 8.4760831110       76.4824564513       10.8274919167
H                 8.6023616656       78.7811296774       12.8272415131
H                 9.9540912676       78.1477338218       11.8523160044
H                 9.2018207107       79.9373145490       10.7479304452
H                 8.4422076094       78.7361117765        9.7292236751
H                 7.6002972657       79.5823173828       10.9384033995
N                12.5093200187       74.4587391299       12.1757955106
C                11.9636399829       75.6981047842       11.6981473007
C                11.2476497012       75.4569612403       10.3586909885
O                10.4906470858       76.2992858936        9.9240192490
C                13.0287273130       76.8531352656       11.6199381127
C                12.5035953165       78.1768499037       12.1914683688
O                12.0919439136       79.0931254911       11.4869557730
N                12.5031193813       78.2375773037       13.5487530932
H                13.4594302506       74.2187630598       11.8935758100
H                11.1842986931       75.9752804139       12.4224489899
H                13.9135112349       76.5345470023       12.1708910889
H                13.2897060439       77.0186300595       10.5803439157
H                12.1485517970       79.0747904514       13.9916092691
H                12.7994658812       77.4784108999       14.1128543062
N                11.4030376213       74.3126076005        9.7108542141
C                10.9996291986       74.3743645828        8.3300542573
C                 9.8663774304       73.4658054753        8.1043017074
O                 9.9957832614       72.3426645852        7.6796322797
C                12.1282250960       74.0423537836        7.4018990124
C                13.1635175559       75.1252547494        7.6225580123
O                12.8355771619       76.2146789710        8.0790683960
N                14.4663240089       74.7879486995        7.3540329801
H                12.1126715951       73.6078248542        9.9851007831
H                10.6936149725       75.4057068226        8.1446284506
H                12.5844505232       73.0675328196        7.6613885701
H                11.8210926429       74.0499124060        6.3593353382
H                15.1553532357       75.4823252722        7.3749572966
H                14.6671416370       73.8963431759        6.8801804249
N                 8.6957946716       73.9438624025        8.3102816361
C                 7.5633805099       73.1918780214        7.8446088245
C                 7.9787472568       72.1706640199        6.7537025976
O                 7.6427923432       70.9889557964        6.9399434286
C                 6.3923412926       74.1263830394        7.4521466335
C                 5.5054066472       73.3981943799        6.4227881473
C                 6.8149472626       75.4819389139        6.9090360106
C                 4.8387131229       72.1703289942        7.0536693352
H                 8.5384905429       74.9065212884        8.6224472606
H                 7.1894361864       72.5510104832        8.6518061307
H                 5.7826891395       74.2983545267        8.3427818379
H                 4.7311730970       74.0977483040        6.0820762830
H                 6.0726280050       73.1184040938        5.5514222717
H                 5.9463198722       75.9441392880        6.4402846529
H                 7.1557765740       76.1597456205        7.6909005943
H                 7.5880965973       75.4030858709        6.1551226919
H                 4.0264818624       71.8655412484        6.4333933620
H                 5.5371712370       71.3875138219        7.2317890222
H                 4.3942383825       72.4861105372        8.0095157821
N                 8.5935800795       72.4371318334        5.5806271141
C                 8.5180727524       71.3596646001        4.5794424212
C                 9.0048501992       70.0829133714        5.2157614313
O                 8.4732614808       68.9559122956        5.0611801588
C                 9.4039823504       71.6801515794        3.3968324561
C                 8.7456585127       72.6884220086        2.4735676112
C                 7.6121208088       72.0628696603        1.6452840207
N                 6.8482640337       73.1331959080        0.9733248015
C                 6.3356795887       73.0651207743       -0.2858146478
N                 6.1775070948       71.8938060627       -0.8924894493
N                 6.1611156709       74.2066212499       -0.9932299535
H                 8.7112996089       73.3913426185        5.2600272185
H                 7.4844508709       71.2284615201        4.2623901349
H                10.3718893009       72.0788541870        3.7455380529
H                 9.6133053953       70.7600263523        2.8406431110
H                 8.3233111331       73.5045662038        3.0635079228
H                 9.4764634316       73.1438536427        1.7952112292
H                 8.0215462991       71.3929669118        0.8870546856
H                 6.9267946058       71.5277613828        2.2877100936
H                 6.9657985352       74.0538360297        1.3454008607
H                 6.0676250181       71.0501328714       -0.3227026185
H                 5.6423613067       71.8952240162       -1.7463694784
H                 6.3078395135       75.0770405285       -0.5171538720
H                 5.3953546965       74.2463243369       -1.6465363953
H                 2.7482627716       92.0649515828       -0.6768328366
H                 5.2678920056       93.0541742014        1.3856379651
H                 4.2831792201       88.5652887488        3.7253913826
H                 4.5633512747       89.4869743966        6.9993119073
H                 5.2281559813       80.0106164800       -5.7033593340
H                 6.0890955098       76.4651480156       -5.3464093769
H                 8.4374405595       78.3648720905       -9.3275732308
H                10.9940564880       74.4564855946       -8.1838680044
H                14.4598592304       77.0007835543      -10.5097866597
H                15.6008920849       74.3504702607       -8.4885165277
H                 3.9893871468       89.3142174761      -10.3426701204
H                 7.8077525654       86.5406638606       -9.2948374827
H                 9.6325918766       88.4795860658       -9.7442618567
H                 1.4603966821       82.4109524632        6.1784389056
H                 0.1107481182       80.5217097503        5.0110233971
H                -1.7118073724       80.4838820925        9.2416964994
H                 3.5290965947       76.8971022181       13.3710464937
H                 4.6103900782       73.6071855512       13.9799215342
H                12.5249490183       74.4643410457       13.0756423603
H                 9.8079692599       70.0957071077        5.8114426334
