 414 
 
N                21.1894619061       70.5151123241      -13.5119222395
C                21.7553029900       71.0180346488      -14.7560182196
C                23.0765739431       71.7978375853      -14.5613072651
O                23.8436359330       71.9324244873      -15.5049470258
C                20.7020986462       71.8371135900      -15.5157721728
C                21.0522805453       72.1622357782      -16.9705924408
C                19.9748096234       71.6588117233      -18.0051854874
O                19.8272638360       72.3657228986      -19.0272353785
O                19.3777267335       70.5941239919      -17.7398382742
H                20.1973291897       70.6560240615      -13.3745239865
H                22.0316929294       70.1601306055      -15.3884338679
H                19.7735201793       71.2569304399      -15.5194280532
H                20.5215619859       72.7655127734      -14.9673108468
H                21.1682148453       73.2354367860      -17.1245613343
H                21.9893281738       71.6820677106      -17.2550391068
N                23.3559756549       72.2888110741      -13.3396563181
C                24.6710459137       72.7784115567      -13.0439565931
C                25.5575709560       71.9434443290      -12.1422260296
O                26.6246822709       71.5960655280      -12.6515881069
C                24.6993142316       74.2096775831      -12.5431240079
C                26.0942029867       74.5509747085      -12.0246461203
C                24.3163121921       75.0829273844      -13.7261313448
H                22.6867158878       72.2377047926      -12.5893288757
H                25.1887319858       72.7516622573      -14.0141251688
H                23.9571107427       74.3274309705      -11.7470268035
H                26.1506818756       75.6176527716      -11.8197490775
H                26.3203012814       74.0200934659      -11.1057108181
H                26.8436183625       74.2971207040      -12.7688278830
H                24.2588540840       76.1264767479      -13.4224572590
H                25.0393495940       74.9870984667      -14.5296305866
H                23.3369343463       74.7922229435      -14.0997934828
N                25.3478277442       71.7344870858      -10.8397092562
C                26.2952097994       70.8209672149      -10.1971558335
C                26.7644145936       69.7558320370      -11.2121779716
O                27.9524153997       69.4442907476      -11.2212765772
C                25.7829980061       70.1354760034       -8.9253089465
C                24.3829280856       69.4951960814       -9.0792490373
C                24.2064379961       67.9353551970       -9.3171961251
O                24.9986787669       67.1499117031       -8.7596970047
O                23.2168525477       67.6014703816      -10.0104121575
H                24.4246593193       71.8472921777      -10.4457844303
H                27.2063180776       71.3836321341       -9.9517734208
H                26.4946522364       69.3586804342       -8.6369750366
H                25.7438082723       70.8770724950       -8.1280316410
H                23.8176215132       69.6679144492       -8.1569277139
H                23.8213940041       69.9750229731       -9.8761778614
N                25.8507134101       69.1647904591      -12.0101137845
C                26.1628824393       68.0701140852      -12.9320573288
C                27.3708311527       68.3464046376      -13.7953318772
O                28.2202566922       67.4830946920      -13.9964704591
C                25.0544865127       67.8002030028      -13.9599635034
C                25.3907173138       66.6660200516      -14.9385200393
C                25.1838865958       67.0250086736      -16.4721964830
O                25.2932251064       68.2161949976      -16.8200843939
O                24.9759287322       66.0244828492      -17.2029575972
H                24.8753204862       69.4150528109      -11.9441204392
H                26.3551881640       67.1673007667      -12.3382531239
H                24.1217607779       67.5880007263      -13.4318594872
H                24.8812312203       68.7135405264      -14.5397833304
H                26.4276250152       66.3506220350      -14.8335789374
H                24.7367230565       65.8111109135      -14.7691737608
N                27.3302728677       69.5260353536      -14.3964415154
C                28.4325459057       70.0174795525      -15.1699749489
C                29.7327495297       69.9478717458      -14.3550640044
O                30.6872415730       69.2573567047      -14.6893116683
C                28.1251068631       71.4385580908      -15.5926339936
C                29.3829030883       72.1601406095      -16.0745545629
C                29.0802628006       73.1516280164      -17.1974365942
N                28.7134218853       72.4511825430      -18.4357314905
C                28.9174076059       72.8409410379      -19.7005514121
N                29.5129287794       73.9979130154      -20.0096896261
N                28.5316430667       72.0225823360      -20.6967623833
H                26.6463716811       70.2022860607      -14.0896574598
H                28.5759668923       69.3634368133      -16.0415669993
H                27.3517975047       71.4036021045      -16.3606617589
H                27.6985311226       71.9664828431      -14.7381415280
H                29.8493347688       72.7021812689      -15.2573827800
H                30.1076874358       71.4326611922      -16.4467320472
H                28.2569781576       73.8065414471      -16.8995851888
H                29.9687808884       73.7547483107      -17.3887094828
H                28.1922885273       71.5945782542      -18.3039394276
H                29.8942667593       74.6137927226      -19.3113764022
H                29.7050931407       74.2398544268      -20.9675273139
H                27.9979750646       71.1878269563      -20.5130973825
H                28.5567418718       72.3427325329      -21.6507825226
N                29.8276776896       70.7578576706      -13.3035535144
C                31.0971066085       70.7719658215      -12.6403200146
C                31.3738526908       69.5197404686      -11.8173780243
O                32.4178540353       69.3893538690      -11.1918340337
C                31.3365470319       72.0800627651      -11.9035238816
O                30.3803774478       72.1343243916      -10.8588778794
C                31.2439712190       73.2578681341      -12.8918211505
H                29.0259254127       71.1702410564      -12.8468018542
H                31.8562026027       70.6999024903      -13.4357465703
H                32.3459952408       72.0276394492      -11.4672814063
H                30.4809321881       72.9693066268      -10.3815373877
H                31.5963324050       74.1681538690      -12.4135968228
H                31.8535644934       73.0632506918      -13.7657516923
H                30.2074906214       73.3995239782      -13.1851997767
N                30.5174224106       68.5189249231      -12.0146056798
C                30.8971065381       67.1766314964      -11.6435745968
C                31.8096464472       66.6037268128      -12.7213090477
O                32.8816694104       66.0758557503      -12.4335583537
C                29.6982289102       66.2498945140      -11.5564150341
C                30.1628693812       64.7992122824      -11.5014262406
C                28.9648823954       63.8736359660      -11.3462185672
N                28.1324633535       63.8496325914      -12.5422287560
C                26.8421058501       64.1567216697      -12.6434250194
N                26.2432268925       64.9358645511      -11.7459341682
N                26.1249357815       63.6401104532      -13.6464814486
H                29.5435841202       68.7077948465      -12.2013821193
H                31.4612346703       67.2005878865      -10.7026844955
H                29.1226375873       66.5000821374      -10.6621587743
H                29.0676136818       66.4105997106      -12.4297457078
H                30.7115535320       64.5316404399      -12.4026634453
H                30.8289024655       64.6613042198      -10.6490685957
H                29.3140635504       62.8541667356      -11.1650518268
H                28.3739457446       64.1900626780      -10.4868423043
H                28.5540682712       63.3454988704      -13.3120913555
H                26.7307334949       65.2825750641      -10.9348322913
H                25.2476522110       65.0864058172      -11.7631737167
H                26.5527133315       63.0472586895      -14.3382757131
H                25.1951301223       63.9736808190      -13.8384572808
N                31.3050558278       66.6541034163      -13.9541159060
C                32.0920432134       66.1903241540      -15.0818311607
C                33.5311051215       66.6753141663      -14.8852806005
O                34.4599484494       65.8743109622      -14.8621869177
C                31.5005450794       66.6183325606      -16.4240043143
C                30.7023000630       65.4895819145      -17.0867828216
C                29.5206089241       65.0583308027      -16.2302648103
C                28.9192596896       63.7191281450      -16.6502891230
N                27.9009515237       63.7940094919      -17.7343541229
H                30.4402042573       67.1502715707      -14.1319874372
H                32.1453851871       65.0917034595      -15.0438429237
H                30.8727540210       67.4967238759      -16.2727803643
H                32.3135998776       66.8988024279      -17.0953875330
H                30.3702007197       65.8102675995      -18.0731871897
H                31.3712770189       64.6368343673      -17.2067900869
H                29.8745929710       64.9377221266      -15.2082652013
H                28.7485273689       65.8310155250      -16.2182381636
H                29.7169856022       63.0446361203      -16.9588655974
H                28.4307348413       63.2850347204      -15.7768045041
H                27.1845230980       63.0738054655      -17.5978726225
H                27.4167286329       64.6975210621      -17.7429809064
H                28.2518332251       63.5545764526      -18.7291731935
N                33.7171712937       67.9910807451      -14.7327995370
C                35.0586657940       68.5141731596      -14.4580278443
C                35.8710443574       67.5636403605      -13.5746031674
O                36.9539331541       67.1282598930      -13.9474515702
C                35.1062077717       69.8651502154      -13.7262185475
C                35.0036681690       71.1121917252      -14.6091355306
C                33.9045432370       70.9975865448      -15.6688290815
C                34.7666421414       72.3092508479      -13.6806433072
H                32.9202625679       68.6134337490      -14.7396428710
H                35.6140790966       68.5798571501      -15.4033788972
H                34.3080088188       69.8715592495      -12.9773031108
H                36.0547805665       69.9138006281      -13.1926299966
H                35.9510342690       71.2383739434      -15.1374619679
H                33.8430554340       71.9253663780      -16.2325209958
H                34.1184132998       70.1940946070      -16.3672196054
H                32.9306125997       70.8113311555      -15.2185992400
H                34.6086164107       73.2165623290      -14.2578699144
H                33.8881958443       72.1289499197      -13.0686124825
H                35.6139357841       72.4547405290      -13.0175947575
N                35.4518640740       67.3672115288      -12.3178304676
C                36.2380707655       66.4934818773      -11.4690466871
C                36.6538262579       65.2012144350      -12.2218805486
O                37.8147623067       64.8068379996      -12.1748680219
C                35.4929002108       66.2040096901      -10.1584217762
C                36.0473378073       66.9980905074       -8.9654569606
C                37.3745991122       66.3879489140       -8.4942694594
O                38.4167411247       66.4811115436       -9.1255136552
N                37.3227972268       65.7985185846       -7.2825694654
H                34.5147530312       67.6062349734      -12.0276268818
H                37.1964501570       66.9799867994      -11.2441718324
H                34.4353716418       66.4239820487      -10.3066721986
H                35.5798352453       65.1376057207       -9.9317406663
H                36.2073487379       68.0353646787       -9.2577104549
H                35.3216061977       66.9712907485       -8.1540480732
H                36.4309812488       65.6031295592       -6.8580222666
H                38.1034305572       65.2283954986       -6.9952106953
N                35.6734783144       64.5325593178      -12.8545908375
C                35.8389049952       63.2256287629      -13.4686248533
C                36.8380259066       63.1422494541      -14.6161523397
O                37.4147979011       62.0977977148      -14.9141124112
C                34.5760225491       62.8098294049      -14.2009130076
C                33.3595692336       62.6213272761      -13.3165739292
C                32.3878965892       62.0840360640      -14.3356636484
O                31.7403085328       62.8222185222      -15.0572577927
N                32.4137091493       60.7471456037      -14.4448051908
H                34.7589359204       64.9631178246      -12.9230677908
H                36.1263248282       62.4944423623      -12.7011118935
H                34.3515587159       63.5808850372      -14.9400413276
H                34.7995969424       61.8765859551      -14.7236523129
H                33.5593836483       61.9207220141      -12.5079437698
H                33.0308726928       63.5763176184      -12.9094993628
H                32.9727930040       60.1989495528      -13.8139203366
H                31.8577825534       60.2686999851      -15.1353030033
N                36.8365138703       64.2244936055      -15.3746221575
C                37.7322481255       64.3444163187      -16.4880041779
C                39.1099733700       64.6394828264      -15.9013945969
O                40.0537656290       63.9173202736      -16.2092821979
C                37.2291137751       65.3928164316      -17.4655342085
C                36.0854825289       64.9535880951      -18.3834173371
C                36.0366459745       65.5492421489      -19.6499369973
C                35.0198075963       64.0946205851      -18.0899423395
C                34.9965736317       65.3652917399      -20.5511358698
C                33.9456263413       63.9198212183      -18.9796133526
C                33.8905715239       64.5813192231      -20.2205631987
O                32.8719008552       64.5702027532      -21.1376462579
H                36.2624348897       65.0236273808      -15.1156712999
H                37.8156187930       63.3682578106      -16.9837683779
H                36.9003885420       66.2676934942      -16.8973170888
H                38.0653239699       65.7020506600      -18.0943906828
H                36.8465556501       66.1993799704      -19.9474150018
H                34.9910589521       63.5723359559      -17.1466137193
H                35.0126305280       65.8674148756      -21.5029539322
H                33.1302682465       63.2799976115      -18.6733287172
H                32.1000521631       64.0779818121      -20.8271110687
N                39.2050026895       65.6405440184      -15.0258645372
C                40.4318147996       65.9143220236      -14.2702053529
C                41.0974058986       64.5507976662      -14.0527381855
O                42.2755648481       64.3512606660      -14.3205240519
C                40.1290153467       66.6999962700      -12.9712757647
C                41.2903558923       67.5690952635      -12.4716741783
C                40.8859803356       68.5973755169      -11.3943308219
N                40.9500245627       68.0075285728      -10.0668303786
C                41.2492539778       68.5975217092       -8.9049591044
N                41.4088328727       67.7998804606       -7.8296460137
N                41.4833797215       69.8978856289       -8.7742513310
H                38.3828958010       66.1714840512      -14.7506399048
H                41.1177719902       66.4948174739      -14.8984892122
H                39.2721365280       67.3369300972      -13.1969075973
H                39.8169679823       66.0028444035      -12.1936237542
H                42.0832106368       66.9321110965      -12.0777100869
H                41.7131436287       68.1033831063      -13.3210814302
H                41.5667277485       69.4500835296      -11.4210972410
H                39.8679300672       68.9534135116      -11.5803371409
H                40.5439450907       67.0812554710      -10.0064405561
H                41.1255736126       66.8347354463       -7.8929606939
H                41.4508872045       68.2119563523       -6.9125655453
H                41.1503008605       70.6483116222       -9.4051154252
H                41.6954973962       70.2442295187       -7.8515651605
N                40.2346742432       63.6314653057      -13.5917831710
C                40.5791382977       62.2638560354      -13.3205936518
C                40.7624647830       61.3784715365      -14.5747099715
O                41.8891752500       60.8854555977      -14.6900946526
C                39.6584955358       61.7458223538      -12.2189571430
C                39.8355671613       62.6289404791      -10.9808754453
C                39.1854140677       62.1047590467       -9.6589662783
O                39.2282348569       62.9016207677       -8.6987777271
O                38.6857434471       60.9619111647       -9.6521317707
H                39.3185814404       63.9425594018      -13.2894456270
H                41.6044012071       62.2661802435      -12.9124703461
H                38.6213969745       61.7590990494      -12.5572116897
H                39.9158668809       60.7150362027      -11.9693299902
H                40.9022957193       62.7471611099      -10.7672950119
H                39.4174632744       63.6209843048      -11.1449233854
N                39.8321546189       61.1240545519      -15.5068829097
C                40.2403363564       60.1737670618      -16.5536308221
C                41.4284284180       60.7207138382      -17.3921457854
O                42.2462425935       59.9091424460      -17.8196201726
C                39.0893036001       59.5731220461      -17.3999826388
C                39.5431150599       58.4348808724      -18.3829122254
S                38.7565579721       56.6931973321      -18.3516388011
C                39.1547416268       56.0096803169      -19.9918757022
H                38.8761237220       61.4627196131      -15.4173586837
H                40.7034474273       59.3253150274      -16.0246107721
H                38.3372848062       59.1979226795      -16.7040968309
H                38.6413663521       60.3702142724      -17.9942183688
H                39.3400126881       58.7587705906      -19.4005765942
H                40.6103269311       58.2518151731      -18.2788066207
H                39.1303922425       54.9327586002      -19.8860497657
H                38.4175923029       56.3481079369      -20.7133787125
H                40.1580222979       56.3398495397      -20.2428825536
N                33.4479636622       62.0921620451      -26.1460850741
C                32.8015907567       62.3170501126      -24.8737249693
C                32.7650978423       63.8031235380      -24.5066497119
O                31.7734298754       64.1937217249      -23.9018704316
C                33.3134517552       61.3638774317      -23.7901646698
C                32.7850631623       61.6854919938      -22.3908513857
S                30.9449387029       61.8845459276      -22.0947167864
C                30.8308850419       61.1592951040      -20.4053349543
H                33.6273148460       62.9339187660      -26.6875447085
H                31.7303349944       62.0710706812      -24.9700954612
H                33.0476183160       60.3515812915      -24.0981890718
H                34.4051225021       61.4176134996      -23.7533806094
H                33.1025389924       60.8921652108      -21.7173150968
H                33.2223544229       62.6336918679      -22.0882791981
H                29.8373753039       61.4282101136      -20.0650122989
H                30.9407820100       60.0817019259      -20.4651064549
H                31.5969032237       61.5986415220      -19.7774910587
N                28.5264993565       64.0556035696      -24.1002768347
C                27.8177912717       64.8151776993      -23.0928331019
C                27.7340659797       66.3051088656      -23.4425167155
O                27.5757917438       67.1311901957      -22.5610753864
C                28.3135895084       64.5843719041      -21.6756771512
C                27.5220580275       63.4590556945      -20.9619649766
O                26.3289996061       63.2428654598      -21.2184848273
O                28.2036464572       62.8658239475      -20.0780619957
H                29.5161938912       64.2492346469      -24.1980359849
H                26.7722330964       64.4572441658      -23.1229560448
H                29.3683370308       64.3140674644      -21.6701927125
H                28.1622759206       65.5125376768      -21.1222505902
N                27.7431233916       66.5992506191      -24.7536016101
C                27.2700806261       67.8423902658      -25.3314983166
C                28.1863783974       69.0365747292      -25.0390867664
O                27.7555223261       70.1866672794      -25.0207193795
H                27.8365816879       65.8334065192      -25.4045119426
H                27.1867329919       67.6988112254      -26.4086914375
H                26.2829650695       68.1039471426      -24.9343016940
N                29.4521657925       68.7286507547      -24.7826601829
C                30.3482433533       69.6561310987      -24.1457581991
C                31.3023978389       70.2939957186      -25.1447075068
O                31.7650817457       69.7387814170      -26.1317822436
C                31.1394212391       68.9340709732      -23.0360970516
C                30.2189466893       68.2936159190      -21.9894994180
C                32.0924479015       69.8754142175      -22.3250187480
C                30.6995113215       66.9276208395      -21.5315238271
H                29.7546646934       67.7621538597      -24.8207463737
H                29.7220275288       70.4496561048      -23.7204514936
H                31.7112665768       68.1458457230      -23.5293717574
H                30.1746408743       68.9587520283      -21.1241274941
H                29.2118034149       68.2055912791      -22.3807586762
H                32.6055865062       69.3135546695      -21.5469005726
H                32.8539659135       70.2750375283      -22.9816535796
H                31.5483959802       70.6882106004      -21.8539364590
H                30.0803623501       66.5640301243      -20.7211435901
H                30.6668781882       66.2157241639      -22.3509504817
H                31.7292723201       66.9850235678      -21.1809566637
N                31.5631909373       71.5631991083      -24.7866454629
C                32.6192388336       72.3371611596      -25.3697586984
C                33.9762196111       72.0110868702      -24.7387527690
O                34.1200892127       71.7133560289      -23.5631180101
C                32.3269188211       73.8204675240      -25.1292821245
C                33.4938716154       74.7361954988      -25.6198081127
O                33.7151345971       74.8005244435      -26.8440034118
O                34.1289648450       75.3370494351      -24.7273998299
H                31.2845553002       71.8637296906      -23.8648742673
H                32.6440899531       72.1322649073      -26.4418607436
H                31.4160001038       74.0989200263      -25.6616152844
H                32.2072988846       74.0095539545      -24.0620887364
N                36.7127803718       76.7832161103      -23.4906933355
C                36.8675623711       77.2112634718      -22.1192369659
C                37.2045024849       76.0306659411      -21.1794083257
O                38.1407226744       76.1218068501      -20.3860050428
C                35.6496531451       78.0233995775      -21.6149818885
C                34.2602763324       77.3834595386      -21.8002381516
C                33.5722298853       76.7598066158      -20.5072422181
O                34.0680374261       77.0059624548      -19.3871540153
O                32.5455060495       76.0865672856      -20.7286598857
H                35.8375600773       76.3523512498      -23.7688453287
H                37.7510538379       77.8598704001      -22.0963137342
H                35.7760000913       78.1903776837      -20.5398481071
H                35.6667245614       78.9912234117      -22.1139836840
H                33.5457048530       78.1396139396      -22.1362286230
H                34.2424340576       76.6013691352      -22.5634505139
N                36.4187828680       74.9538215400      -21.2794417249
C                36.2758777949       73.9229596679      -20.2672135870
C                37.6418311725       73.5477413862      -19.7132104305
O                37.8817768363       73.4601995404      -18.5066176077
C                35.4266310021       72.7804234445      -20.8446267767
C                33.9449722410       72.9188820752      -20.4177328387
C                32.9744474453       73.2320750802      -21.5510731627
C                33.4955260738       71.6642659012      -19.6746277037
H                35.6296887209       75.0116441454      -21.9053902591
H                35.7402723696       74.3707005386      -19.4123558746
H                35.5089886715       72.7762273402      -21.9277638305
H                35.8154870662       71.8280221985      -20.4797254560
H                33.8717891894       73.7631266760      -19.7186883603
H                32.0048067396       73.4713099284      -21.1216513653
H                33.3036735298       74.1097917228      -22.1035023291
H                32.8977502172       72.3940388522      -22.2184737766
H                32.4622726644       71.7587783239      -19.3538344115
H                33.5911222331       70.7975512624      -20.3183744401
H                34.1154847305       71.5126883621      -18.7931663084
N                39.2972818674       74.8166520667      -16.3112999481
C                38.5731189610       74.4980450162      -15.1010995394
C                39.3758640479       73.7090010903      -14.0565490837
O                39.1426096872       73.7811548944      -12.8587787455
C                37.4274727412       73.5483669556      -15.4821825012
O                37.9360047429       72.3527581454      -16.0072989457
H                38.8244200944       74.5884357432      -17.1820325340
H                38.1817388611       75.4120907251      -14.6392114996
H                36.8806677975       73.3130492749      -14.5695705896
H                36.7561942777       74.0329162859      -16.1982812654
H                38.0090714848       72.4458360838      -16.9699865456
N                40.2735767017       72.9019825984      -14.6300959143
C                41.1074146546       71.9484749231      -13.9368277258
C                42.6183844089       72.3140039349      -13.9986424630
O                43.4400312893       71.7207290313      -13.3141314288
C                40.9381974830       70.5821554554      -14.6063753519
C                39.5130377449       70.0714981987      -14.5557842158
S                39.2448353606       68.6023078679      -15.6534112404
C                40.6762339505       68.4911565308      -16.7529191313
H                40.1949042182       72.7735724011      -15.6346575716
H                40.8145932463       71.9309286398      -12.8810909333
H                41.2403956119       70.7210807780      -15.6489123480
H                41.6340280556       69.8918458625      -14.1330402538
H                39.2359057547       69.7527249135      -13.5556824213
H                38.8181418479       70.8322916740      -14.9006149997
H                40.5379607264       67.5562713765      -17.2896343237
H                40.7000630467       69.3163150536      -17.4586925949
H                41.6007439372       68.4477020063      -16.1859886540
H                34.2445735452       61.6952564901      -26.0123739129
H                33.5262836569       64.3997735144      -24.7608247723
H                28.4648994340       63.1774496703      -23.9130572346
H                34.8058500941       72.0356859161      -25.2965234642
H                36.8032985933       77.4915194022      -24.0385189449
H                38.3995951694       73.3577542969      -20.3374688953
H                39.4620601078       75.7010115567      -16.3388031118
H                42.9316310647       73.0446940232      -14.6052465576
H                21.3191394310       69.6259780916      -13.4606966977
H                41.5071602451       61.7021867467      -17.5668232862
