 350 
 
N                 4.7130000000       34.8290000000      -18.4800000000
C                 4.9630000000       35.0710000000      -17.0600000000
C                 6.2660000000       34.4410000000      -16.6000000000
O                 6.8200000000       33.5950000000      -17.2990000000
C                 3.7880000000       34.3630000000      -16.3730000000
C                 2.6780000000       34.4800000000      -17.3460000000
C                 3.3140000000       34.4380000000      -18.7340000000
H                 4.9210000000       35.6990000000      -19.0110000000
H                 5.3400000000       34.0660000000      -18.8060000000
H                 4.9490000000       36.1380000000      -16.8370000000
H                 4.0380000000       33.3190000000      -16.1840000000
H                 3.5450000000       34.8640000000      -15.4360000000
H                 1.9880000000       33.6460000000      -17.2150000000
H                 2.1550000000       35.4240000000      -17.1920000000
H                 3.2620000000       33.4330000000      -19.1540000000
H                 2.8290000000       35.1470000000      -19.4040000000
N                 6.7560000000       34.8670000000      -15.4420000000
C                 7.7330000000       34.0830000000      -14.7160000000
C                 7.1790000000       33.7110000000      -13.3590000000
O                 7.0680000000       34.5670000000      -12.4660000000
C                 9.0480000000       34.8350000000      -14.5440000000
S                10.4510000000       33.7470000000      -14.1320000000
H                 6.4940000000       35.7440000000      -14.9910000000
H                 7.9110000000       33.1710000000      -15.2860000000
H                 9.2850000000       35.3490000000      -15.4760000000
H                 8.9370000000       35.5590000000      -13.7370000000
N                 6.8340000000       32.4330000000      -13.2050000000
C                 6.5360000000       31.9070000000      -11.8790000000
C                 7.0170000000       30.4900000000      -11.5710000000
O                 7.1550000000       29.6460000000      -12.4570000000
C                 5.0620000000       32.0470000000      -11.5570000000
C                 4.1520000000       31.8030000000      -12.7160000000
S                 2.4930000000       32.0910000000      -12.0950000000
C                 2.6000000000       31.2660000000      -10.4890000000
H                 6.7550000000       31.7560000000      -13.9640000000
H                 7.1440000000       32.5130000000      -11.2070000000
H                 4.8060000000       31.3270000000      -10.7790000000
H                 4.8790000000       33.0610000000      -11.2010000000
H                 4.3690000000       32.4960000000      -13.5290000000
H                 4.2430000000       30.7750000000      -13.0680000000
H                 1.6420000000       31.3580000000       -9.9780000000
H                 2.8380000000       30.2140000000      -10.6460000000
H                 3.3830000000       31.7400000000       -9.8980000000
N                 8.2500000000       25.0020000000      -12.5110000000
C                 8.5950000000       26.3300000000      -13.0500000000
C                 7.9350000000       26.7030000000      -14.3740000000
O                 7.6870000000       25.8520000000      -15.2210000000
C                10.0970000000       26.4460000000      -13.2360000000
C                10.8510000000       26.7970000000      -11.9940000000
S                12.4920000000       27.2860000000      -12.4950000000
C                12.1350000000       28.4430000000      -13.8400000000
H                 8.2340000000       24.2580000000      -13.2090000000
H                 8.2010000000       27.0390000000      -12.3210000000
H                10.4770000000       25.4890000000      -13.5920000000
H                10.2960000000       27.2240000000      -13.9730000000
H                10.3670000000       27.6260000000      -11.4780000000
H                10.9150000000       25.9330000000      -11.3330000000
H                13.0750000000       28.8220000000      -14.2410000000
H                11.5820000000       27.9200000000      -14.6200000000
H                11.5380000000       29.2670000000      -13.4500000000
N                 7.7170000000       27.9960000000      -14.5680000000
C                 7.1850000000       28.5030000000      -15.8240000000
C                 7.7880000000       29.8680000000      -16.1230000000
O                 7.6430000000       30.8100000000      -15.3350000000
C                 5.6720000000       28.6000000000      -15.7580000000
H                 7.8990000000       28.7200000000      -13.8730000000
H                 7.4730000000       27.8280000000      -16.6300000000
H                 5.2990000000       28.9810000000      -16.7090000000
H                 5.2610000000       27.6090000000      -15.5680000000
H                 5.3950000000       29.2780000000      -14.9510000000
N                 8.4690000000       29.9750000000      -17.2580000000
C                 9.1410000000       31.2210000000      -17.6160000000
C                 9.1960000000       31.4260000000      -19.1210000000
O                 8.6030000000       30.6760000000      -19.8940000000
C                10.5650000000       31.2450000000      -17.0470000000
O                11.3820000000       30.2590000000      -17.6630000000
H                 8.5730000000       29.2260000000      -17.9430000000
H                 8.5220000000       32.0120000000      -17.1920000000
H                11.0010000000       32.2280000000      -17.2270000000
H                10.5210000000       31.0480000000      -15.9760000000
H                11.8680000000       30.6510000000      -18.4180000000
N                 9.8960000000       32.4730000000      -19.5260000000
C                10.4550000000       32.5120000000      -20.8570000000
C                11.9530000000       32.3500000000      -20.6780000000
O                12.4200000000       32.0700000000      -19.5690000000
C                10.1020000000       33.8240000000      -21.5840000000
O                10.8260000000       34.9340000000      -21.0800000000
H                10.0870000000       33.2970000000      -18.9560000000
H                10.0360000000       31.7130000000      -21.4690000000
H                10.3350000000       33.7080000000      -22.6420000000
H                 9.0370000000       34.0170000000      -21.4560000000
H                10.5760000000       35.7470000000      -21.5670000000
N                12.6940000000       32.4870000000      -21.7750000000
C                14.1460000000       32.4510000000      -21.7410000000
C                14.6100000000       33.8940000000      -21.7510000000
O                14.1340000000       34.6790000000      -22.5600000000
C                14.6860000000       31.7060000000      -22.9640000000
C                16.1710000000       31.3930000000      -22.9030000000
C                17.0480000000       32.6130000000      -23.1500000000
O                18.2080000000       32.6150000000      -22.6970000000
O                16.5820000000       33.5770000000      -23.7890000000
H                12.3110000000       32.6260000000      -22.7100000000
H                14.5260000000       31.9340000000      -20.8600000000
H                14.1530000000       30.7600000000      -23.0580000000
H                14.5140000000       32.3200000000      -23.8480000000
H                16.4100000000       31.0020000000      -21.9140000000
H                16.4080000000       30.6500000000      -23.6640000000
N                15.5060000000       34.2620000000      -20.8220000000
C                16.0920000000       33.4040000000      -19.8000000000
C                15.1600000000       33.2970000000      -18.6180000000
O                14.2420000000       34.1110000000      -18.4810000000
C                17.3520000000       34.1650000000      -19.3660000000
C                17.3560000000       35.4540000000      -20.1340000000
C                15.9900000000       35.6420000000      -20.7020000000
H                16.3660000000       32.4280000000      -20.2020000000
H                17.3100000000       34.3570000000      -18.2940000000
H                18.2350000000       33.5730000000      -19.6050000000
H                17.6020000000       36.2740000000      -19.4600000000
H                18.0940000000       35.3940000000      -20.9340000000
H                15.3610000000       36.2200000000      -20.0260000000
H                16.0340000000       36.1280000000      -21.6770000000
N                15.3990000000       32.3160000000      -17.7430000000
C                14.4830000000       32.2200000000      -16.6320000000
C                14.8360000000       33.3340000000      -15.6530000000
O                15.9990000000       33.7520000000      -15.5910000000
C                14.7840000000       30.8320000000      -16.0400000000
C                15.8470000000       30.2040000000      -16.9320000000
C                16.4860000000       31.3310000000      -17.6590000000
H                13.4320000000       32.2430000000      -16.9200000000
H                15.1540000000       30.9430000000      -15.0210000000
H                13.8750000000       30.2300000000      -16.0430000000
H                16.5780000000       29.6770000000      -16.3180000000
H                15.3780000000       29.5110000000      -17.6300000000
H                17.3310000000       31.7290000000      -17.0980000000
H                16.8110000000       31.0210000000      -18.6520000000
N                13.8370000000       33.8410000000      -14.9370000000
C                14.0490000000       34.9150000000      -13.9660000000
C                14.5310000000       34.3850000000      -12.6130000000
O                15.1460000000       35.1130000000      -11.8380000000
C                12.7570000000       35.7060000000      -13.7670000000
S                11.5200000000       34.8270000000      -12.7770000000
H                12.8670000000       33.5320000000      -15.0040000000
H                14.8040000000       35.5970000000      -14.3560000000
H                12.9920000000       36.6400000000      -13.2570000000
H                12.3180000000       35.9140000000      -14.7430000000
N                14.2100000000       33.1240000000      -12.3310000000
C                14.5750000000       32.4670000000      -11.0800000000
C                15.1580000000       31.0960000000      -11.3740000000
O                15.1790000000       30.6590000000      -12.5240000000
C                13.3530000000       32.2560000000      -10.1730000000
C                13.1230000000       33.4680000000       -9.3150000000
C                12.1180000000       31.9170000000      -10.9960000000
H                13.6860000000       32.5210000000      -12.9650000000
H                15.3250000000       33.0910000000      -10.5940000000
H                13.5440000000       31.4100000000       -9.5130000000
H                12.2530000000       33.2940000000       -8.6810000000
H                14.0050000000       33.6380000000       -8.6970000000
H                12.9480000000       34.3300000000       -9.9580000000
H                11.2720000000       31.7740000000      -10.3240000000
H                11.9130000000       32.7380000000      -11.6820000000
H                12.3060000000       31.0020000000      -11.5570000000
N                17.3930000000       35.4590000000      -10.4360000000
C                18.3060000000       35.6990000000      -11.5410000000
C                17.9630000000       36.9860000000      -12.2950000000
O                18.7090000000       37.4230000000      -13.1750000000
C                18.2430000000       34.5270000000      -12.5130000000
C                18.3570000000       33.1330000000      -11.9170000000
C                18.2970000000       32.0740000000      -13.0230000000
C                19.6450000000       33.0420000000      -11.1180000000
H                16.4490000000       35.2140000000      -10.7330000000
H                19.3280000000       35.7750000000      -11.1700000000
H                17.2870000000       34.5730000000      -13.0340000000
H                19.0610000000       34.6370000000      -13.2250000000
H                17.5230000000       32.9340000000      -11.2440000000
H                18.3810000000       31.0850000000      -12.5720000000
H                17.3460000000       32.1630000000      -13.5490000000
H                19.1220000000       32.2380000000      -13.7160000000
H                19.7280000000       32.0430000000      -10.6910000000
H                20.4880000000       33.2330000000      -11.7810000000
H                19.6220000000       33.7860000000      -10.3220000000
N                16.8170000000       37.5740000000      -11.9750000000
C                16.4090000000       38.8190000000      -12.6020000000
C                15.9070000000       39.7890000000      -11.5430000000
O                15.0510000000       39.4310000000      -10.7170000000
C                15.3080000000       38.5550000000      -13.6270000000
C                15.7870000000       37.9440000000      -14.9410000000
C                14.6320000000       37.6570000000      -15.9040000000
O                13.4790000000       38.0170000000      -15.6360000000
N                14.9350000000       36.9950000000      -17.0220000000
H                16.1560000000       37.2120000000      -11.2880000000
H                17.2650000000       39.2790000000      -13.0960000000
H                14.5860000000       37.8650000000      -13.1890000000
H                14.8220000000       39.5020000000      -13.8640000000
H                16.4710000000       38.6380000000      -15.4290000000
H                16.2960000000       37.0030000000      -14.7330000000
H                15.8970000000       36.7070000000      -17.1990000000
H                14.2040000000       36.7770000000      -17.6990000000
N                22.1730000000       36.4886944073      -28.0115000000
C                21.2280000000       35.4196944073      -28.2215000000
C                21.0830000000       35.0896944073      -29.6955000000
O                21.0360000000       35.9866944073      -30.5325000000
C                19.8750000000       35.7936944073      -27.6385000000
C                19.0430000000       34.5856944073      -27.3225000000
C                17.5770000000       34.8926944073      -27.2225000000
C                16.7970000000       33.6426944073      -27.5715000000
N                15.8800000000       33.2126944073      -26.4725000000
H                21.8750000000       37.3916944073      -28.3805000000
H                21.5960000000       34.5186944073      -27.7305000000
H                20.0260000000       36.3546944073      -26.7155000000
H                19.3310000000       36.4026944073      -28.3605000000
H                19.1780000000       33.8456944073      -28.1115000000
H                19.3650000000       34.1736944073      -26.3665000000
H                17.3280000000       35.1956944073      -26.2055000000
H                17.3130000000       35.6846944073      -27.9235000000
H                16.1940000000       33.8356944073      -28.4585000000
H                17.4960000000       32.8296944073      -27.7655000000
H                15.3660000000       32.3536944073      -26.7535000000
H                16.4270000000       33.0116944073      -25.6115000000
H                15.1920000000       33.9656944073      -26.2675000000
N                23.0470000000       29.4576944073      -21.8065000000
C                21.7970000000       28.7126944073      -21.9315000000
C                21.6850000000       28.0456944073      -23.2825000000
O                22.0660000000       28.6306944073      -24.2955000000
C                20.5960000000       29.6346944073      -21.7365000000
C                20.3780000000       29.9866944073      -20.2935000000
C                20.7260000000       31.2346944073      -19.8085000000
C                19.8880000000       29.0416944073      -19.4005000000
C                20.5670000000       31.5486944073      -18.4785000000
C                19.7170000000       29.3406944073      -18.0635000000
C                20.0590000000       30.6006944073      -17.6005000000
O                19.9140000000       30.9106944073      -16.2555000000
H                23.0720000000       30.3096944073      -22.3675000000
H                21.7880000000       27.9316944073      -21.1715000000
H                20.7620000000       30.5586944073      -22.2905000000
H                19.6990000000       29.1356944073      -22.1035000000
H                21.1290000000       31.9746944073      -20.4845000000
H                19.6360000000       28.0546944073      -19.7595000000
H                20.8370000000       32.5306944073      -18.1185000000
H                19.3210000000       28.5996944073      -17.3855000000
H                19.5440000000       30.1426944073      -15.7725000000
N                18.5450000000       27.1866944073      -25.1035000000
C                17.1570000000       27.4926944073      -24.8645000000
C                16.9920000000       27.9576944073      -23.4305000000
O                17.6110000000       28.9406944073      -23.0185000000
C                16.3050000000       26.2536944073      -25.1065000000
C                16.2120000000       25.8916944073      -26.5755000000
O                16.0050000000       26.7576944073      -27.4325000000
N                16.3490000000       24.6056944073      -26.8735000000
H                18.9920000000       27.7346944073      -25.8385000000
H                16.9190000000       28.2946944073      -25.5635000000
H                16.7460000000       25.4086944073      -24.5775000000
H                15.2960000000       26.4376944073      -24.7385000000
H                16.2960000000       24.2986944073      -27.8445000000
H                16.5070000000       23.9246944073      -26.1315000000
N                16.1810000000       27.2306944073      -22.6685000000
C                15.7950000000       27.6686944073      -21.3295000000
C                16.6560000000       26.9936944073      -20.2755000000
O                16.5390000000       27.2826944073      -19.0845000000
C                14.3160000000       27.3606944073      -21.0585000000
C                13.3270000000       28.4416944073      -21.5065000000
C                11.9540000000       28.1906944073      -20.8695000000
C                10.7980000000       28.7666944073      -21.7005000000
N                 9.5150000000       27.9966944073      -21.5165000000
H                15.7760000000       26.3376944073      -22.9495000000
H                15.9070000000       28.7506944073      -21.2545000000
H                14.0550000000       26.4426944073      -21.5845000000
H                14.1850000000       27.2246944073      -19.9845000000
H                13.6850000000       29.4216944073      -21.1905000000
H                13.2200000000       28.4156944073      -22.5905000000
H                11.7970000000       27.1166944073      -20.7745000000
H                11.9270000000       28.6596944073      -19.8855000000
H                10.6200000000       29.7976944073      -21.3965000000
H                11.0650000000       28.7306944073      -22.7565000000
H                 8.7610000000       28.4186944073      -22.0955000000
H                 9.6490000000       27.0066944073      -21.8065000000
H                 9.2270000000       28.0196944073      -20.5175000000
N                17.5150000000       26.0866944073      -20.7315000000
C                18.3890000000       25.3176944073      -19.8525000000
C                19.8050000000       25.8496944073      -19.7985000000
O                20.4490000000       26.0516944073      -20.8325000000
C                18.4240000000       23.8636944073      -20.2955000000
C                17.2520000000       23.1016944073      -19.7825000000
O                16.8890000000       23.3396944073      -18.6105000000
O                16.6700000000       22.3046944073      -20.5475000000
H                17.6290000000       25.8596944073      -21.7195000000
H                17.9880000000       25.4106944073      -18.8435000000
H                18.4100000000       23.8196944073      -21.3845000000
H                19.3310000000       23.3936944073      -19.9145000000
N                17.6230000000       27.8496944073      -29.1335000000
C                18.3620000000       29.0726944073      -28.8445000000
C                19.6080000000       28.8486944073      -27.9825000000
O                19.7780000000       27.7876944073      -27.3515000000
C                17.4870000000       30.1386944073      -28.1545000000
O                17.4020000000       29.8846944073      -26.7345000000
C                16.1090000000       30.1626944073      -28.7875000000
H                17.0620000000       27.4986944073      -28.3575000000
H                18.6830000000       29.4376944073      -29.8195000000
H                17.9340000000       31.1246944073      -28.2825000000
H                16.8460000000       30.5676944073      -26.3045000000
H                15.4880000000       30.9156944073      -28.3015000000
H                16.1900000000       30.4016944073      -29.8475000000
H                15.6320000000       29.1886944073      -28.6805000000
N                22.2860000000       31.3426944073      -25.3225000000
C                22.3170000000       32.6316944073      -24.6605000000
C                23.4100000000       32.7206944073      -23.5965000000
O                23.5140000000       31.8666944073      -22.7065000000
C                20.9460000000       32.9356944073      -24.0445000000
C                20.5450000000       34.4096944073      -24.1595000000
O                21.3800000000       35.2486944073      -24.5735000000
O                19.3760000000       34.7236944073      -23.8245000000
H                22.5640000000       30.5486944073      -24.7465000000
H                22.5790000000       33.3836944073      -25.4045000000
H                20.1890000000       32.3416944073      -24.5575000000
H                20.9690000000       32.6766944073      -22.9855000000
N                24.5070000000       35.0826944073      -20.4875000000
C                23.7010000000       35.8966944073      -19.5715000000
C                24.5040000000       36.2806944073      -18.3295000000
O                24.6420000000       35.4826944073      -17.3945000000
C                22.4720000000       35.0936944073      -19.0975000000
C                21.6190000000       34.6726944073      -20.2895000000
C                21.6620000000       35.8746944073      -18.0675000000
C                20.6810000000       35.7436944073      -20.7565000000
H                25.0500000000       34.3596944073      -20.0145000000
H                23.4150000000       36.8026944073      -20.1055000000
H                22.8270000000       34.1886944073      -18.6045000000
H                22.2770000000       34.4176944073      -21.1205000000
H                21.0220000000       33.8056944073      -20.0065000000
H                20.8060000000       35.2736944073      -17.7595000000
H                22.2950000000       36.0886944073      -17.2065000000
H                21.3200000000       36.8066944073      -18.5175000000
H                20.1090000000       35.3686944073      -21.6055000000
H                20.0070000000       36.0056944073      -19.9405000000
H                21.2600000000       36.6176944073      -21.0555000000
H                17.0577750253       27.9950117097      -29.8186303596
H                20.3058945273       29.5619444220      -27.9175566002
H                21.4493706966       31.1706915268      -25.6061660320
H                24.0601709702       33.4803640186      -23.6099086206
H                23.9669216574       34.6719849348      -21.0787978209
H                24.9248493686       37.1856161295      -18.2662348002
H                 7.2289064164       30.2274571999      -10.6296355919
H                 8.8536729521       24.7649510871      -11.8869913624
H                15.5289735564       30.5403804630      -10.6299129416
H                17.7015679475       34.7790107606       -9.9336052786
H                16.2662418888       40.7216126767      -11.5086654607
H                22.3114058802       36.5982799633      -27.1289838142
H                21.0250089921       34.1361266434      -29.9910428271
H                23.1690727329       29.6977558005      -20.9477399780
H                21.3001344141       27.1256130057      -23.3554979122
H                19.0185940762       27.3331633640      -24.3523305812
H                20.2330860596       26.0432325817      -18.9157286250
