 58 
 
N                17.4099189750       13.0633761176       25.3476719449
C                16.8462830187       12.0840660939       26.2825596679
C                15.3274643659       12.1321768501       26.2546133823
O                14.6484467854       11.3930900142       26.9593684821
C                17.2701966271       12.3419678513       27.7337803896
C                18.7926498543       12.6227804003       28.1070093814
O                18.9006661166       13.4188101880       29.0811454469
O                19.7103556166       12.0752677909       27.5175478980
H                18.0231076455       13.7604132693       25.7403860204
H                17.1730915978       11.0831768559       25.9749413457
H                16.7200617742       13.2060676587       28.1181324783
H                16.9865266219       11.4676156049       28.3243447219
O                17.9004134334       11.6800862743       31.2995872552
H                18.2155984886       12.2686902969       30.5976947417
H                16.9439611375       11.6496549983       31.2049436022
O                16.1995592976        8.5888636201       29.7777630625
H                17.0313142613        9.0765247007       29.7708689707
H                16.4362908949        7.6922250894       29.5080164727
O                20.8377969932       13.2598718825       33.2450585557
H                21.7590320883       12.9500847084       33.1636605483
H                20.4110413240       13.0561062050       32.4105930341
N                22.0716224695        8.1714635060       29.5757328539
C                20.9785678593        9.0219314675       29.9637588230
C                19.8042674702        9.0403674671       28.9916173835
O                18.6971349555        9.3858178291       29.3843507845
C                21.4251766794       10.4805789746       30.1483135809
O                21.8374902229       10.9366414234       28.8998067896
H                22.9794526570        8.5986000778       29.4479983269
H                20.5591152103        8.6679739143       30.9169782441
H                20.5680837026       11.0557206908       30.5326504579
H                22.2345256253       10.5193628087       30.8918027369
H                22.5611213723       11.5888583233       28.9626612821
N                16.9328230528        4.4629178113       32.2595774591
C                17.8486230666        5.3097658628       33.0065279447
C                17.2487461052        5.7685779854       34.3265039976
O                17.9252673750        5.7113738464       35.3557564704
C                18.2309535903        6.5297552003       32.1755504912
C                19.1275336501        7.5076222866       32.8887548195
C                20.4749955987        7.2114679701       33.0916209521
C                18.6759246623        8.7636732157       33.2448296759
C                21.3358817981        8.2133604919       33.4938200369
C                19.5098703951        9.7072095469       33.8065621674
C                20.8728447521        9.4453904344       33.8872002731
H                16.6552962214        4.7934946707       31.3397882116
H                18.7403736899        4.7224373276       33.2641741942
H                18.7467513507        6.1933234994       31.2719138310
H                17.3159624675        7.0413521009       31.8752640156
H                20.8640538060        6.2422119332       32.8165892421
H                17.6358745890        9.0092976824       33.0910503532
H                22.3961494791        8.0075825352       33.5336687892
H                19.1298907706       10.6707285868       34.1076694553
H                21.5524352300       10.2106071805       34.2292785243
H                17.8941958284       12.6361345045       24.7208222553
H                14.8586683519       12.7774902599       25.6514542819
H                22.1961726198        7.5375719439       30.2023657189
H                19.9401899071        8.7711324164       28.0381827614
H                17.3099922752        3.6566780033       32.1264581530
H                16.3108189930        6.1141372903       34.3561940476
