 509 
 
N               -19.3390000000       43.7860000000       15.1260000000
C               -19.1990000000       45.0860000000       15.7890000000
C               -20.1460000000       46.1580000000       15.2740000000
O               -20.5200000000       46.1780000000       14.1010000000
C               -17.7520000000       45.6020000000       15.7810000000
C               -17.0470000000       45.5570000000       14.4440000000
C               -15.5650000000       45.6080000000       14.6590000000
O               -14.9890000000       46.6760000000       14.9230000000
N               -14.9230000000       44.4450000000       14.5900000000
H               -19.7620000000       43.8460000000       14.2000000000
H               -19.5190000000       44.9070000000       16.8160000000
H               -17.7580000000       46.6420000000       16.1090000000
H               -17.1690000000       44.9960000000       16.4750000000
H               -17.2960000000       44.6310000000       13.9260000000
H               -17.3450000000       46.4140000000       13.8400000000
H               -15.4410000000       43.5870000000       14.4000000000
H               -13.9130000000       44.4110000000       14.7270000000
N               -20.5340000000       47.0450000000       16.1870000000
C               -21.4030000000       48.1800000000       15.9230000000
C               -20.4690000000       49.3360000000       15.6000000000
O               -19.6620000000       49.7180000000       16.4530000000
C               -22.2830000000       48.4570000000       17.1600000000
O               -22.9730000000       47.2580000000       17.5270000000
C               -23.2770000000       49.5920000000       16.9380000000
H               -20.2470000000       46.9990000000       17.1650000000
H               -22.0840000000       48.0180000000       15.0880000000
H               -21.6380000000       48.7790000000       17.9770000000
H               -23.5360000000       47.4220000000       18.3120000000
H               -23.8730000000       49.7470000000       17.8380000000
H               -22.7440000000       50.5130000000       16.7030000000
H               -23.9430000000       49.3480000000       16.1110000000
N               -20.5430000000       49.8670000000       14.3730000000
C               -19.6890000000       50.9880000000       14.0010000000
C               -20.5210000000       52.2660000000       13.7800000000
O               -21.6060000000       52.2050000000       13.2110000000
C               -18.7330000000       50.6480000000       12.8180000000
C               -19.4890000000       50.2430000000       11.5570000000
C               -17.7490000000       51.7790000000       12.5280000000
H               -21.1720000000       49.5440000000       13.6380000000
H               -19.0480000000       51.2150000000       14.8530000000
H               -18.1490000000       49.7830000000       13.1320000000
H               -18.7700000000       50.0180000000       10.7690000000
H               -20.0920000000       49.3610000000       11.7730000000
H               -20.1330000000       51.0670000000       11.2490000000
H               -17.1080000000       51.4870000000       11.6960000000
H               -18.3080000000       52.6780000000       12.2690000000
H               -17.1440000000       51.9600000000       13.4170000000
N               -20.0190000000       53.4080000000       14.2780000000
C               -20.6190000000       54.7320000000       14.1080000000
C               -20.1900000000       55.2720000000       12.7470000000
O               -19.0830000000       54.9600000000       12.2960000000
C               -20.1300000000       55.6600000000       15.2020000000
H               -19.1600000000       53.4460000000       14.8270000000
H               -21.7070000000       54.6890000000       14.1650000000
H               -20.5840000000       56.6410000000       15.0640000000
H               -20.4180000000       55.2500000000       16.1700000000
H               -19.0450000000       55.7400000000       15.1400000000
N               -21.0530000000       56.0760000000       12.0910000000
C               -20.7620000000       56.6620000000       10.7680000000
C               -19.4950000000       57.5370000000       10.8460000000
O               -19.3360000000       58.2790000000       11.8220000000
C               -21.9800000000       57.4000000000       10.1290000000
C               -21.7070000000       57.7750000000        8.6720000000
C               -23.2520000000       56.5620000000       10.2160000000
H               -21.9690000000       56.3420000000       12.4520000000
H               -20.5580000000       55.8350000000       10.0880000000
H               -22.1330000000       58.3170000000       10.6980000000
H               -22.5810000000       58.2860000000        8.2670000000
H               -20.8390000000       58.4340000000        8.6320000000
H               -21.5110000000       56.8670000000        8.1020000000
H               -24.0730000000       57.1150000000        9.7600000000
H               -23.0950000000       55.6230000000        9.6850000000
H               -23.4750000000       56.3630000000       11.2640000000
N               -18.5990000000       57.3910000000        9.8190000000
C               -17.3060000000       58.0600000000        9.6120000000
C               -16.1830000000       57.5120000000       10.5340000000
O               -15.0270000000       57.9620000000       10.4500000000
C               -17.4120000000       59.6020000000        9.6700000000
C               -18.1910000000       60.2390000000        8.5250000000
O               -18.5140000000       59.5220000000        7.5460000000
O               -18.4570000000       61.4570000000        8.5950000000
H               -18.7820000000       56.7460000000        9.0500000000
H               -16.9540000000       57.8320000000        8.6060000000
H               -17.9120000000       59.8790000000       10.5980000000
H               -16.4050000000       60.0180000000        9.6500000000
N               -16.5040000000       56.4910000000       11.3370000000
C               -15.5300000000       55.8470000000       12.2160000000
C               -14.6460000000       54.8740000000       11.4610000000
O               -14.7590000000       54.7570000000       10.2380000000
H               -17.4380000000       56.0870000000       11.3990000000
H               -14.8960000000       56.6060000000       12.6740000000
H               -16.0540000000       55.3010000000       13.0010000000
N               -13.7730000000       54.1450000000       12.1780000000
C               -12.8970000000       53.1370000000       11.5620000000
C               -13.0820000000       51.7570000000       12.1870000000
O               -12.9980000000       51.6300000000       13.4110000000
C               -11.4300000000       53.5880000000       11.6010000000
O               -11.2840000000       54.7520000000       10.7860000000
C               -10.4570000000       52.4990000000       11.1370000000
H               -13.6520000000       54.2330000000       13.1870000000
H               -13.1930000000       53.0180000000       10.5200000000
H               -11.1620000000       53.8100000000       12.6340000000
H               -10.3520000000       55.0550000000       10.7990000000
H                -9.4330000000       52.8690000000       11.1840000000
H               -10.5460000000       51.6220000000       11.7780000000
H               -10.6820000000       52.2110000000       10.1100000000
N               -13.3010000000       50.7260000000       11.3510000000
C               -13.4030000000       49.3440000000       11.8100000000
C               -12.3570000000       48.4440000000       11.1510000000
O               -11.9730000000       48.6660000000        9.9900000000
C               -14.8230000000       48.7720000000       11.6730000000
C               -15.3820000000       48.5350000000       10.2860000000
C               -16.1350000000       49.5150000000        9.6440000000
C               -15.2510000000       47.2990000000        9.6670000000
C               -16.7190000000       49.2740000000        8.3910000000
C               -15.8390000000       47.0570000000        8.4170000000
C               -16.5750000000       48.0460000000        7.7910000000
H               -13.4120000000       50.8280000000       10.3420000000
H               -13.1720000000       49.3300000000       12.8750000000
H               -14.8390000000       47.8080000000       12.1810000000
H               -15.5050000000       49.4650000000       12.1660000000
H               -16.2720000000       50.4760000000       10.1180000000
H               -14.6900000000       46.5150000000       10.1540000000
H               -17.2810000000       50.0530000000        7.8980000000
H               -15.7170000000       46.0950000000        7.9420000000
H               -17.0350000000       47.8540000000        6.8330000000
N               -11.8760000000       47.4420000000       11.9110000000
C               -10.8960000000       46.4640000000       11.4310000000
C               -11.5080000000       45.0560000000       11.5460000000
O               -12.0820000000       44.7220000000       12.5910000000
C                -9.5370000000       46.5560000000       12.1740000000
C                -8.5260000000       45.5770000000       11.5870000000
C                -8.9730000000       47.9740000000       12.1490000000
H               -12.1560000000       47.2860000000       12.8790000000
H               -10.6990000000       46.6620000000       10.3770000000
H                -9.7150000000       46.2880000000       13.2150000000
H                -7.5860000000       45.6680000000       12.1310000000
H                -8.9150000000       44.5640000000       11.6850000000
H                -8.3710000000       45.8150000000       10.5350000000
H                -8.0220000000       47.9870000000       12.6820000000
H                -8.8230000000       48.2780000000       11.1130000000
H                -9.6800000000       48.6460000000       12.6350000000
N               -10.2360000000       54.2000000000        0.9950000000
C               -10.5730000000       54.0240000000        2.4100000000
C               -10.5590000000       52.5560000000        2.8640000000
O               -10.3670000000       52.3090000000        4.0530000000
C               -11.8940000000       54.7280000000        2.7860000000
C               -13.1490000000       54.1160000000        2.1980000000
C               -14.3910000000       54.9080000000        2.5360000000
N               -15.5860000000       54.2070000000        2.0700000000
C               -16.2820000000       53.3530000000        2.8100000000
N               -15.9270000000       53.1070000000        4.0640000000
N               -17.3460000000       52.7440000000        2.3050000000
H               -11.0360000000       54.0900000000        0.3720000000
H                -9.8140000000       54.5350000000        3.0020000000
H               -11.9990000000       54.7040000000        3.8710000000
H               -11.8430000000       55.7600000000        2.4390000000
H               -13.0550000000       54.0820000000        1.1130000000
H               -13.2730000000       53.1080000000        2.5930000000
H               -14.4610000000       55.0340000000        3.6160000000
H               -14.3470000000       55.8820000000        2.0490000000
H               -15.9050000000       54.3850000000        1.1180000000
H               -15.1150000000       53.5750000000        4.4650000000
H               -16.4660000000       52.4490000000        4.6270000000
H               -17.6330000000       52.9310000000        1.3440000000
H               -17.8780000000       52.0880000000        2.8770000000
N                -8.9930000000       46.6900000000        6.8020000000
C                -9.3410000000       47.9050000000        7.5480000000
C               -10.2210000000       48.8420000000        6.7210000000
O                -9.9160000000       49.1140000000        5.5510000000
C                -8.1000000000       48.6350000000        8.0930000000
C                -8.4360000000       49.8410000000        8.9740000000
C                -7.2340000000       50.6860000000        9.2840000000
O                -6.4290000000       51.0330000000        8.4110000000
N                -7.1180000000       51.0770000000       10.5370000000
H                -8.4340000000       46.8530000000        5.9650000000
H                -9.9420000000       47.6000000000        8.4040000000
H                -7.5170000000       47.9360000000        8.6930000000
H                -7.5050000000       48.9920000000        7.2520000000
H                -9.1640000000       50.4670000000        8.4570000000
H                -8.8520000000       49.4870000000        9.9170000000
H                -7.8200000000       50.8030000000       11.2240000000
H                -6.3260000000       51.6540000000       10.8200000000
N               -11.3200000000       49.3210000000        7.3370000000
C               -12.2240000000       50.2600000000        6.6900000000
C               -12.3130000000       51.5430000000        7.5020000000
O               -12.8800000000       51.5360000000        8.5960000000
C               -13.6120000000       49.6590000000        6.3330000000
C               -13.4930000000       48.5390000000        5.2950000000
C               -14.5510000000       50.7360000000        5.8040000000
C               -13.4980000000       47.2260000000        5.8290000000
H               -11.5980000000       49.0680000000        8.2850000000
H               -11.7610000000       50.5460000000        5.7460000000
H               -14.0190000000       49.2400000000        7.2540000000
H               -14.3350000000       48.6150000000        4.6070000000
H               -12.5560000000       48.6680000000        4.7540000000
H               -15.5120000000       50.2820000000        5.5640000000
H               -14.6820000000       51.5000000000        6.5700000000
H               -14.1150000000       51.1780000000        4.9080000000
H               -13.4090000000       46.5100000000        5.0120000000
H               -12.6550000000       47.1170000000        6.5110000000
H               -14.4330000000       47.0640000000        6.3650000000
N               -11.7250000000       52.6320000000        6.9710000000
C               -11.7590000000       53.9640000000        7.5760000000
C               -12.9960000000       54.7000000000        7.0620000000
O               -13.5270000000       54.3390000000        6.0050000000
C               -10.5110000000       54.7840000000        7.2000000000
C                -9.2270000000       54.4010000000        7.9020000000
C                -8.2110000000       55.5080000000        7.7320000000
N                -6.8390000000       55.0050000000        7.6810000000
C                -5.7580000000       55.7790000000        7.6850000000
N                -5.8770000000       57.1010000000        7.7530000000
N                -4.5470000000       55.2380000000        7.6310000000
H               -11.2030000000       52.6150000000        6.0950000000
H               -11.7850000000       53.8710000000        8.6620000000
H               -10.3390000000       54.6700000000        6.1300000000
H               -10.7070000000       55.8300000000        7.4370000000
H                -9.4160000000       54.2570000000        8.9660000000
H                -8.8260000000       53.4850000000        7.4670000000
H                -8.4120000000       56.0370000000        6.8000000000
H                -8.2880000000       56.1950000000        8.5750000000
H                -6.7020000000       53.9950000000        7.6400000000
H                -6.8020000000       57.5280000000        7.8030000000
H                -5.0430000000       57.6890000000        7.7560000000
H                -4.4430000000       54.2240000000        7.5860000000
H                -3.7210000000       55.8360000000        7.6340000000
N               -13.4240000000       55.7530000000        7.8000000000
C               -14.5510000000       56.6500000000        7.4960000000
C               -15.7660000000       55.8870000000        6.9440000000
O               -16.1090000000       56.0180000000        5.7630000000
C               -14.1070000000       57.8220000000        6.5870000000
C               -12.8590000000       58.5330000000        7.0710000000
C               -12.9250000000       59.5130000000        8.0560000000
C               -11.6110000000       58.2200000000        6.5480000000
C               -11.7760000000       60.1640000000        8.5080000000
C               -10.4550000000       58.8570000000        6.9960000000
C               -10.5410000000       59.8320000000        7.9710000000
O                -9.3920000000       60.4510000000        8.3980000000
H               -12.9740000000       56.0230000000        8.6750000000
H               -14.8930000000       57.1040000000        8.4260000000
H               -13.9020000000       57.4330000000        5.5890000000
H               -14.9120000000       58.5560000000        6.5430000000
H               -13.8830000000       59.7750000000        8.4790000000
H               -11.5350000000       57.4670000000        5.7780000000
H               -11.8480000000       60.9230000000        9.2730000000
H                -9.4940000000       58.5890000000        6.5820000000
H                -8.6190000000       60.0940000000        7.9130000000
N               -16.3720000000       55.0450000000        7.8130000000
C               -17.4770000000       54.1310000000        7.4990000000
C               -18.7990000000       54.8040000000        7.0860000000
O               -19.3340000000       55.6380000000        7.8110000000
C               -17.7080000000       53.1710000000        8.6540000000
H               -16.1000000000       54.9750000000        8.7930000000
H               -17.1560000000       53.5840000000        6.6130000000
H               -18.5300000000       52.5020000000        8.4000000000
H               -16.7990000000       52.5940000000        8.8230000000
H               -17.9570000000       53.7440000000        9.5470000000
N               -19.3100000000       54.4200000000        5.9010000000
C               -20.5740000000       54.8880000000        5.3240000000
C               -21.7120000000       54.0050000000        5.8490000000
O               -21.4680000000       52.9130000000        6.3730000000
C               -20.5450000000       54.8040000000        3.7800000000
C               -19.5260000000       55.7130000000        3.0920000000
C               -19.6690000000       55.7170000000        1.5630000000
C               -20.7330000000       56.6600000000        1.0360000000
N               -20.3460000000       58.0900000000        1.1830000000
H               -18.8430000000       53.7500000000        5.2900000000
H               -20.7430000000       55.9290000000        5.6010000000
H               -20.3090000000       53.7780000000        3.4970000000
H               -21.5310000000       55.0770000000        3.4030000000
H               -19.6650000000       56.7350000000        3.4460000000
H               -18.5210000000       55.3680000000        3.3350000000
H               -18.7170000000       56.0170000000        1.1250000000
H               -19.9300000000       54.7110000000        1.2350000000
H               -20.8940000000       56.4600000000       -0.0230000000
H               -21.6580000000       56.5010000000        1.5910000000
H               -21.1000000000       58.7030000000        0.8110000000
H               -20.1920000000       58.3150000000        2.1870000000
H               -19.4690000000       58.2770000000        0.6570000000
N               -22.9560000000       54.4760000000        5.6830000000
C               -24.1690000000       53.7710000000        6.0930000000
C               -24.3430000000       52.5060000000        5.2580000000
O               -24.7980000000       51.4870000000        5.7710000000
C               -25.3770000000       54.6960000000        5.9150000000
C               -26.5310000000       54.4880000000        6.8650000000
C               -26.2020000000       55.0230000000        8.2550000000
C               -27.7780000000       55.1580000000        6.3310000000
H               -23.1620000000       55.3770000000        5.2510000000
H               -24.1100000000       53.4940000000        7.1450000000
H               -25.0370000000       55.7240000000        6.0440000000
H               -25.7640000000       54.5550000000        4.9060000000
H               -26.7190000000       53.4180000000        6.9540000000
H               -27.0560000000       54.8560000000        8.9110000000
H               -25.3290000000       54.4970000000        8.6400000000
H               -25.9910000000       56.0900000000        8.1840000000
H               -28.5960000000       54.9950000000        7.0320000000
H               -27.5880000000       56.2260000000        6.2230000000
H               -28.0270000000       54.7240000000        5.3620000000
N               -22.0870000000       50.5530000000        4.2920000000
C               -21.0840000000       49.5450000000        4.6400000000
C               -21.7130000000       48.4360000000        5.4790000000
O               -21.0490000000       47.4460000000        5.7910000000
C               -19.8880000000       50.1680000000        5.3800000000
C               -18.9040000000       50.9220000000        4.4980000000
O               -18.7930000000       50.5800000000        3.2940000000
O               -18.2050000000       51.8180000000        5.0210000000
H               -22.0740000000       51.3650000000        4.9090000000
H               -20.6640000000       49.1170000000        3.7300000000
H               -20.2690000000       50.8730000000        6.1190000000
H               -19.3350000000       49.3700000000        5.8760000000
N               -21.6040000000       43.4040000000       10.3150000000
C               -21.1920000000       44.7360000000       10.7600000000
C               -22.3280000000       45.7150000000       10.4600000000
O               -22.7320000000       45.8460000000        9.3030000000
C               -19.8150000000       45.1570000000       10.1470000000
C               -18.7330000000       44.0500000000       10.2930000000
C               -19.3130000000       46.5020000000       10.6820000000
C               -18.4860000000       43.4510000000       11.7420000000
H               -21.6790000000       43.3250000000        9.3010000000
H               -21.0620000000       44.7430000000       11.8420000000
H               -20.0020000000       45.2870000000        9.0810000000
H               -19.0200000000       43.2160000000        9.6530000000
H               -17.7830000000       44.4660000000        9.9590000000
H               -18.3550000000       46.7340000000       10.2170000000
H               -20.0410000000       47.2750000000       10.4380000000
H               -19.1940000000       46.4320000000       11.7630000000
H               -17.7050000000       42.6930000000       11.6840000000
H               -18.1750000000       44.2540000000       12.4100000000
H               -19.4120000000       43.0040000000       12.1040000000
N               -22.8740000000       46.3460000000       11.5150000000
C               -23.9550000000       47.3260000000       11.4210000000
C               -23.3870000000       48.7370000000       11.6390000000
O               -22.4910000000       48.9320000000       12.4670000000
C               -25.0740000000       46.9870000000       12.4330000000
C               -26.3200000000       47.8700000000       12.3780000000
C               -27.3740000000       47.5790000000       11.3230000000
O               -27.6350000000       46.3850000000       11.0490000000
O               -28.0090000000       48.5460000000       10.8410000000
H               -22.5720000000       46.1880000000       12.4760000000
H               -24.4060000000       47.3180000000       10.4290000000
H               -25.3980000000       45.9620000000       12.2510000000
H               -24.6620000000       47.0750000000       13.4380000000
H               -26.8210000000       47.7930000000       13.3430000000
H               -25.9900000000       48.8950000000       12.2090000000
N               -23.9050000000       49.7080000000       10.8790000000
C               -23.4730000000       51.1000000000       10.9640000000
C               -24.6890000000       52.0480000000       11.0430000000
O               -25.4590000000       52.1660000000       10.0860000000
C               -22.4350000000       51.4770000000        9.8630000000
C               -22.7790000000       50.8740000000        8.5050000000
C               -22.1910000000       52.9830000000        9.7720000000
H               -24.6370000000       49.5530000000       10.1860000000
H               -22.9820000000       51.2430000000       11.9270000000
H               -21.4890000000       51.0310000000       10.1700000000
H               -22.0200000000       51.1720000000        7.7820000000
H               -22.8010000000       49.7880000000        8.5940000000
H               -23.7560000000       51.2410000000        8.1910000000
H               -21.4590000000       53.1770000000        8.9880000000
H               -23.1310000000       53.4810000000        9.5350000000
H               -21.8130000000       53.3400000000       10.7300000000
N               -24.8610000000       52.6930000000       12.2180000000
C               -25.9390000000       53.6450000000       12.5190000000
C               -25.3560000000       55.0380000000       12.7940000000
O               -24.1870000000       55.1460000000       13.1740000000
C               -26.7830000000       53.1600000000       13.7100000000
C               -27.6370000000       51.9310000000       13.4000000000
C               -28.5100000000       51.5240000000       14.5610000000
O               -28.0300000000       51.1390000000       15.6340000000
N               -29.8170000000       51.5660000000       14.3580000000
H               -24.2360000000       52.5650000000       13.0130000000
H               -26.5990000000       53.7370000000       11.6560000000
H               -26.1140000000       52.9020000000       14.5310000000
H               -27.4540000000       53.9630000000       14.0140000000
H               -28.2850000000       52.1520000000       12.5520000000
H               -26.9820000000       51.0940000000       13.1600000000
H               -30.1830000000       51.8620000000       13.4530000000
H               -30.4580000000       51.3020000000       15.1060000000
N               -26.1670000000       56.1010000000       12.5900000000
C               -25.7550000000       57.4960000000       12.7910000000
C               -25.7000000000       57.8890000000       14.2750000000
O               -26.0510000000       57.0800000000       15.1360000000
C               -26.6720000000       58.4310000000       12.0140000000
H               -27.1350000000       56.0180000000       12.2790000000
H               -24.7390000000       57.5860000000       12.4070000000
H               -26.3500000000       59.4600000000       12.1760000000
H               -26.6130000000       58.1860000000       10.9540000000
H               -27.6940000000       58.3010000000       12.3690000000
O               -22.5410000000       53.6000000000       16.4480000000
H               -22.0780000000       53.8100000000       17.1170000000
H               -23.1950000000       54.1260000000       16.4310000000
N               -10.2696454706       63.1087985369        3.3386666667
C               -10.3991595537       63.0484735647        4.7936666667
C                -9.0201899768       62.9509189340        5.4996666667
O                -8.7620578890       63.7060168251        6.4426666667
C               -11.3396396252       61.8975142973        5.1866666667
C               -12.7187983130       61.9247413784        4.4846666667
C               -13.7453870908       62.8846374568        5.0746666667
N               -14.1144966727       62.5273209073        6.4456666667
C               -13.5735236427       63.0683136807        7.5336666667
N               -12.6387089801       64.0054601722        7.4236666667
N               -13.9609011739       62.6753561151        8.7386666667
H               -10.2994603183       62.1791577058        2.9206666667
H               -10.8619414010       63.9669118924        5.1546666667
H               -10.8591090666       60.9538176394        4.9296666667
H               -11.5164261217       61.9453111034        6.2606666667
H               -12.5679226686       62.2140656600        3.4446666667
H               -13.1475810359       60.9240679169        4.5346666667
H               -13.3278626981       63.8918109183        5.0876666667
H               -14.6480926771       62.8631055170        4.4636666667
H               -14.8345914809       61.8160801133        6.5746666667
H               -12.3320801602       64.3145568672        6.5006666667
H               -12.2278051695       64.4171664491        8.2616666667
H               -14.6770677789       61.9549191686        8.8346666667
H               -13.5428992871       63.0933566207        9.5696666667
N                -8.1473351366       62.0347478648        5.0416666667
C                -6.7903392803       61.8771336337        5.5546666667
C                -5.8616214976       62.0857200191        4.3646666667
O                -6.0143805185       61.4291336337        3.3306666667
C                -6.5844952552       60.4996659436        6.2116666667
C                -5.2586763134       60.3600517124        6.9706666667
C                -5.1864095603       61.2132214003        8.2166666667
O                -5.8792357288       60.9712112758        9.2106666667
N                -4.3266974380       62.2202864761        8.1936666667
H                -8.3674576055       61.3754845648        4.2956666667
H                -6.5703578275       62.6161526865        6.3246666667
H                -7.3927348531       60.3277538953        6.9226666667
H                -6.6030299574       59.7355628976        5.4346666667
H                -5.1320803090       59.3193224240        7.2706666667
H                -4.4431661889       60.6605566821        6.3126666667
H                -3.7576270225       62.3859453489        7.3636666667
H                -4.2340531539       62.8307510832        9.0056666667
N                -6.6196268374       58.9888162581        1.9996666667
C                -7.9672291928       58.4147005103        2.0816666667
C                -8.9769782246       59.4237638843        1.5316666667
O                -9.0058614160       60.5697367292        1.9926666667
C                -8.3164753267       57.9777884620        3.5226666667
C                -9.7797205849       57.5893733308        3.6356666667
C                -7.4277692348       56.8330725661        3.9816666667
H                -6.5138171445       59.8260840223        2.5726666667
H                -8.0167831329       57.5368705683        1.4376666667
H                -8.1386682111       58.8277594201        4.1816666667
H                -9.9882013471       57.2882740584        4.6626666667
H               -10.3962030488       58.4475943814        3.3666666667
H                -9.9800084626       56.7604645505        2.9566666667
H                -7.7038717752       56.5548489381        4.9986666667
H                -7.5692295629       55.9840560907        3.3126666667
H                -6.3876424868       57.1586249400        3.9546666667
N               -13.1810990776       60.0820129657        0.1626666667
C               -14.5717321765       59.6493657837        0.1806666667
C               -15.3726236057       60.2641811370       -0.9543333333
O               -15.1246607003       61.4096654876       -1.3423333333
C               -15.2138422640       59.9611984881        1.5416666667
O               -15.2259164532       61.3722853791        1.7756666667
C               -14.5341540288       59.2304530448        2.6946666667
H               -13.0734733407       61.0764262102        0.3626666667
H               -14.6117553730       58.5720435738        0.0206666667
H               -16.2422203007       59.5999954791        1.5176666667
H               -15.6359939103       61.5640103883        2.6446666667
H               -15.0226019755       59.4824363843        3.6356666667
H               -14.5961317080       58.1531045555        2.5416666667
H               -13.4850106203       59.5196227327        2.7526666667
N               -18.9006070807       58.3635345100       19.5626666667
C               -18.1992810973       57.0602667459       19.5816666667
C               -16.9028063657       57.0438268519       20.4046666667
O               -16.4840044049       58.0872131263       20.9086666667
C               -17.9472081044       56.7888699769       18.0926666667
C               -17.7707015684       58.1545882651       17.5096666667
C               -18.7753025425       59.0105683366       18.2396666667
H               -18.8479695176       56.2847054437       19.9896666667
H               -17.0484006683       56.1856501224       17.9666666667
H               -18.8030964506       56.2784278756       17.6516666667
H               -16.7540196841       58.5075329438       17.6856666667
H               -17.9780598616       58.1334331658       16.4396666667
H               -18.4075794200       60.0314834678       18.3436666667
H               -19.7327376023       59.0102421682       17.7186666667
N               -16.1673412033       61.8476898802       15.0436666667
C               -16.7064576418       62.8379128177       14.0856666667
C               -17.3554656945       64.0797978959       14.7236666667
O               -17.5236142577       65.0925560411       14.0446666667
C               -17.7241857340       62.0271560537       13.2726666667
C               -17.3729737967       60.5934729732       13.5166666667
C               -16.8772264666       60.5601325367       14.9176666667
H               -15.9018302032       63.1735684225       13.4316666667
H               -18.7334887059       62.2449920261       13.6216666667
H               -17.6340229026       62.2753226587       12.2146666667
H               -18.2572833046       59.9678039759       13.4006666667
H               -16.5968066862       60.2758338439       12.8196666667
H               -17.7060519444       60.5005646985       15.6236666667
H               -16.1967728596       59.7227127562       15.0706666667
H               -10.9450306001       63.5956505341        2.9968625419
H                -5.1230648876       62.7577520699        4.4185837928
H               -18.5272662078       43.4099429506       15.0276671663
H               -11.4406064775       44.4173793640       10.7794350671
H                -9.9044016677       55.0266359238        0.8657111936
H               -10.7042124408       51.8250201762        2.1972302915
H                -8.5170856464       46.1387487529        7.3307982514
H               -24.0864481303       52.5056589040        4.2914695960
H               -21.9392852372       50.8471099287        3.4543367630
H               -22.6648086340       48.5124284364        5.7760168655
H               -21.0013778080       42.7952451373       10.5911593940
H               -25.3801711247       58.7987206451       14.5397977312
H                -6.0172414615       58.3829910572        2.2826996767
H                -9.6076975301       59.1540460084        0.8040366611
H               -12.7163320411       59.6253428011        0.7835080011
H               -16.1044278759       59.7407007475       -1.3907171003
H               -19.7259851250       58.2655987350       19.9078617824
H               -16.4011009152       56.1879505463       20.5302349366
H               -15.2838472023       61.7460757696       14.9054171726
H               -17.6369519903       64.0597246974       15.6830219356
