 402 
 
N               -39.2284408867       61.4951489432       20.8393703296
C               -40.6592031464       61.7810453498       20.9383501095
C               -41.3873354562       60.5780066562       20.4047884892
O               -42.1907329454       59.8808401149       21.0035981993
C               -41.0967972764       62.9327501996       20.0571036293
C               -40.8468364997       64.2997970060       20.6880325767
C               -41.7121024972       65.3084770581       19.9824522535
C               -41.1948240740       64.3178073329       22.1706262954
H               -38.5902491531       62.1341237559       20.4119831977
H               -40.9325759132       61.9096779639       21.9785651071
H               -40.5886613655       62.8727405894       19.0865844833
H               -42.1781104555       62.8009044474       19.8676980139
H               -39.8071268296       64.5382713530       20.5730286360
H               -41.4689624001       66.2926113249       20.3007141192
H               -41.6167312343       65.2396557840       18.8893498405
H               -42.7660379883       65.1094321575       20.2351148231
H               -41.2109957415       65.3252520063       22.5202688318
H               -42.1897254962       63.8798875341       22.3366008984
H               -40.4760820096       63.7561371779       22.7560300678
N               -44.8211597722       60.0024695046       21.0579621672
C               -45.1866123294       61.2434130384       21.6738357202
C               -45.3105968179       62.3868220043       20.6740645336
O               -44.5954703524       62.5291065703       19.7027614482
C               -44.1331474054       61.6233064488       22.7374367348
C               -44.0848122487       60.5653976766       23.8482230484
C               -44.4356543927       62.9715742146       23.3748457633
C               -42.6494170129       60.2926641252       24.3066770531
H               -43.8229346810       59.7982925449       21.0236837114
H               -46.1709821533       61.0862170932       22.1343404846
H               -43.1858374361       61.6571848195       22.2261961659
H               -44.6680653493       60.9154610917       24.6984339225
H               -44.5267373240       59.6335125972       23.5032458925
H               -43.6804508089       63.1991903809       24.0952412152
H               -44.4744678184       63.7746582018       22.6436431520
H               -45.4020124724       62.9021616049       23.8858421536
H               -42.6763671930       59.5656998082       25.1302483697
H               -42.0665950853       59.8637078247       23.5011251413
H               -42.1821325817       61.1890264907       24.6545114288
N               -46.3002233384       63.2318079740       21.0327962090
C               -46.5125233080       64.5262150466       20.4300232017
C               -45.6094501949       65.5979828667       21.0402256125
O               -45.5200824711       65.7900524309       22.2506158377
C               -47.9548237804       64.9658198979       20.6625927230
C               -48.3252196164       66.3499614076       20.0403340541
O               -47.6206311305       66.8023810871       19.1168136511
O               -49.3251833312       66.9131439386       20.5284309900
H               -46.7541993401       63.1011891821       21.9293109696
H               -46.3148785367       64.4272863104       19.3701393612
H               -48.6483430031       64.2312258014       20.2367602810
H               -48.1715184417       65.0403778514       21.7381334548
N               -44.9506096504       66.3987995554       20.2059740114
C               -44.4810728677       67.6646387137       20.7221779187
C               -45.5774771572       68.6656410755       21.1946853392
O               -45.4942012365       69.0539796683       22.3590342081
C               -43.6044046256       68.2275080322       19.6101703930
C               -43.9906453158       67.4627254920       18.3453745824
C               -44.6963580674       66.1873904228       18.8029342555
H               -43.9043588989       67.4702131599       21.6532593892
H               -43.7736143345       69.2861573977       19.4760851986
H               -42.5561975988       68.0664519736       19.8523326507
H               -44.6852447194       68.0436163929       17.7525024899
H               -43.1166295891       67.2438971479       17.7298539432
H               -45.6305964780       66.0426600694       18.2629646822
H               -44.0801440752       65.2776646010       18.6705874395
N               -46.4591132032       69.1286399585       20.2955571228
C               -47.1883983621       70.4198861953       20.2450754708
C               -47.5375610157       70.9911268915       21.6209680741
O               -47.3302892503       72.1508101304       21.9189996847
C               -48.5132802950       70.3618282803       19.4340777766
C               -49.1469966373       71.7124631540       19.0446187207
O               -48.5616104872       72.6003617919       18.4350191560
N               -50.4806431597       71.8032372998       19.3681227699
H               -46.6847602839       68.5007664778       19.5226459537
H               -46.5413911770       71.1517430045       19.7518392617
H               -48.3118450867       69.8463408088       18.4963511913
H               -49.2421721519       69.7461304876       19.9860955357
H               -50.9592307185       72.6770868739       19.0130217489
H               -50.9901108495       71.1235518185       19.7696919508
N               -48.1856292198       70.1106987476       22.4176871096
C               -48.4721698832       70.3762698587       23.8030242394
C               -47.2843825761       70.0819365736       24.7256284714
O               -46.9351088091       70.9159518013       25.5514411075
C               -49.7290932202       69.6289440336       24.2841792491
C               -49.7778308786       68.1333046798       23.9871791581
C               -49.7306784574       67.1654060873       25.2396719116
O               -49.7074608554       67.6638121089       26.3643025183
O               -49.7225969777       65.9570107389       24.9679703036
H               -48.3178063997       69.1767440435       22.0744224464
H               -48.6509555581       71.4738141913       23.8740594647
H               -49.8081761498       69.7493302210       25.3665536267
H               -50.6217927899       70.1266177922       23.8363294453
H               -50.7033082237       67.8611977411       23.4387977039
H               -48.9724639973       67.8030617066       23.3263052227
N               -46.7093545099       68.9034291940       24.6033007706
C               -45.8289345938       68.3037959135       25.5966385428
C               -44.7956139255       69.3374087238       26.0322846289
O               -44.5064767013       69.5285923473       27.2036635053
C               -45.2998484622       66.9673704853       25.0422670353
C               -46.1978283059       65.7838643283       25.4928760356
C               -46.9499740831       65.0393060977       24.4012877027
C               -45.3589061114       64.7877586462       26.2935823311
H               -47.0602799226       68.2434507121       23.9274408329
H               -46.4159279726       68.0960696648       26.4928604919
H               -45.2582411338       67.0239940165       23.9442158844
H               -44.2851324045       66.7975292605       25.3925206109
H               -46.9731953850       66.1807710656       26.1421495915
H               -47.5443927876       64.2605224664       24.8541785993
H               -47.6345775561       65.6924455482       23.8621537764
H               -46.2667745000       64.6041319496       23.6735549918
H               -45.9839388877       63.9741431588       26.6434501480
H               -44.5640330039       64.3811026099       25.6736871729
H               -44.9207466103       65.2849856263       27.1451567291
N               -44.2727875513       70.0339486752       25.0386515247
C               -43.4622042352       71.2107265702       25.1919110171
C               -43.6712583956       71.8711540888       26.5907159676
O               -42.7744408209       71.9751698314       27.4210243357
C               -43.7636892244       72.1657205480       24.0215257888
C               -43.9331769764       71.4855220946       22.6469586432
C               -43.8999456328       72.4997598473       21.5082174190
C               -42.8708638266       70.4160677331       22.3547682145
H               -44.6281233282       69.8283702904       24.1075348980
H               -42.4110584202       70.9139484799       25.1564387512
H               -44.6874890139       72.7322516249       24.2189242964
H               -42.9557209853       72.8925582819       23.9632754650
H               -44.9413937606       71.0372127076       22.6085090876
H               -44.1006717748       71.9959195127       20.5525469043
H               -44.6715078800       73.2661532597       21.6268814767
H               -42.9305247142       72.9812173803       21.4303333133
H               -42.9775310429       70.0996631510       21.3129326458
H               -41.8986157909       70.8258561188       22.4866360668
H               -42.9915608679       69.5283785160       22.9704557505
N               -44.9052660849       72.3445038718       26.7798897968
C               -45.3407657653       73.2826122406       27.7972950736
C               -45.1817484807       72.7839604650       29.2349171740
O               -45.1861400052       73.5461526379       30.1875427750
C               -46.8490938266       73.5176619246       27.6315170747
C               -47.1776966009       73.9954480431       26.2238657221
O               -46.3311124673       74.4414256686       25.4747235906
N               -48.4692935678       73.9241598607       25.8933069016
H               -45.6009958757       72.1093794220       26.0942150377
H               -44.7973682193       74.2345868261       27.6831682583
H               -47.3796572327       72.5869885468       27.8217095196
H               -47.1796533119       74.2772787973       28.3488133663
H               -49.1501209489       73.4255962005       26.4508014971
H               -48.7235519458       74.1348280931       24.9298180780
N               -45.1331330288       71.4607096197       29.3394367414
C               -45.3276078505       70.6977942044       30.5539986845
C               -44.2665698351       70.9377149335       31.6244310753
O               -44.4884237978       70.8652035971       32.8094768018
C               -45.2053607297       69.2117181848       30.1602923718
O               -43.8878343023       68.9030850951       29.7850515911
H               -45.0766997255       70.9210514921       28.4745931365
H               -46.3141990090       70.9013741634       30.9710629552
H               -45.4624336709       68.6038445123       31.0230248993
H               -45.9040090228       68.9939571900       29.3471608416
H               -43.8104028720       69.0315700328       28.8280188023
N               -43.0692355601       71.1646766449       31.0722693928
C               -41.8471403893       71.4142014225       31.7775477049
C               -41.4443943735       72.8949961959       31.7698745520
O               -40.6042260824       73.3269646120       32.5259103949
C               -40.7424826986       70.6245525481       31.0763320071
C               -40.9270031576       69.1250656730       31.2240754598
S               -39.8015921197       68.1601137390       30.1068352375
C               -38.7883867208       69.3904300753       29.2177007493
H               -42.9936363506       71.0545846435       30.0689617062
H               -41.9746731316       71.0997335769       32.8342840880
H               -40.7938068194       70.8874267651       30.0308399617
H               -39.7862185826       70.9487686649       31.4877360656
H               -40.7197148987       68.7914256414       32.2572322780
H               -41.9451263847       68.8287645473       30.9611934036
H               -37.9995454575       68.8051421863       28.7726948464
H               -39.3656381007       69.8802102783       28.4507997092
H               -38.3626205329       70.1279053196       29.8983652060
N               -42.0335462282       73.6037204434       30.8044647481
C               -42.0737899067       75.0575430904       30.8138860625
C               -42.8033447261       75.5616760899       32.0791217991
O               -42.4353339541       76.5719261909       32.6479286115
C               -42.7282994965       75.5555862839       29.5267355241
H               -42.7564985965       73.1716581559       30.2444983213
H               -41.0469769911       75.4372830704       30.8795809374
H               -42.5892112800       76.6329608574       29.4150073594
H               -42.2705453980       75.0686564922       28.6622491884
H               -43.7910338665       75.3425653991       29.5313239629
N               -43.8122318568       74.7685154186       32.4859586278
C               -44.6388667000       75.0147756439       33.6582231925
C               -44.2619051410       74.2346483328       34.9592360428
O               -43.9133471049       74.8985585255       35.9289300735
C               -46.1028030368       74.8159749678       33.2750129213
H               -44.1881165622       74.0961399572       31.8275285389
H               -44.4632919196       76.0689548343       33.9351629742
H               -46.7569496064       75.1111598155       34.0929122004
H               -46.3386069047       75.4539287039       32.4052593377
H               -46.2943465365       73.7911928213       33.0047473775
N               -44.4413322412       72.9153402582       35.0420878885
C               -44.2928278152       72.2095499368       36.3172138885
C               -42.8225484837       71.8287632582       36.7116078699
O               -42.5055380691       72.0198997704       37.8901493487
C               -45.0915604298       70.9118706536       36.3067367905
O               -42.1133445894       71.2946795097       35.8426761642
H               -44.5432200667       72.3315953351       34.2238436021
H               -44.6336165144       72.8873291001       37.1012789517
H               -44.8576989685       70.3494952505       37.2168860466
H               -46.1454518958       71.1076286522       36.2558982602
H               -44.7801496480       70.3149500584       35.4424897813
N               -46.4790066817       58.4064560259       31.5445071526
C               -46.3412569894       59.6041279025       30.7466457764
C               -45.6413986902       60.6944627592       31.5315333886
O               -44.5794130090       61.1632426504       31.1857210285
C               -47.7501765808       60.0342026779       30.3278114445
C               -47.7381743797       61.4724879907       29.8272454831
C               -48.7749068363       61.7023742757       28.7311273378
N               -48.3668109425       61.0353023618       27.5115313992
C               -48.5735823517       61.4054112905       26.2581181244
N               -49.2353866162       62.5016232743       25.9544783728
N               -48.0648631077       60.6580492463       25.2767724215
H               -47.4227924695       58.1202618093       31.8080413396
H               -45.7196515265       59.3723067872       29.8823847986
H               -48.0961424913       59.3272522053       29.5647545771
H               -48.4122003140       59.9118997528       31.1854403879
H               -47.9668782821       62.1451852296       30.6691628331
H               -46.7636020618       61.7313376761       29.4528873686
H               -49.7547149438       61.3189150154       29.0554288718
H               -48.8566070133       62.7727156522       28.5512939153
H               -47.9037500884       60.1320018098       27.6538106532
H               -49.5678647472       63.1545947749       26.6556553879
H               -49.3488847812       62.8315226820       24.9944770805
H               -47.6350708449       59.7506466759       25.4636359987
H               -48.3009459719       60.8296214572       24.3052070412
N               -41.9445228147       63.1618261276       31.2427198385
C               -41.7228466928       64.5753605990       31.4793778637
C               -40.5652579912       64.8212857596       32.4265677757
O               -39.6621125758       65.6069759921       32.1226818046
C               -42.9099013608       65.3070779824       32.1084404195
C               -43.9815164363       65.7873756200       31.1207380363
C               -44.3476838219       64.7045077039       30.1105379916
C               -45.1910394432       66.2312148064       31.9403159662
H               -42.8958672570       62.7803668930       31.2513703440
H               -41.4367821503       65.0710413624       30.5429622623
H               -43.3578882229       64.6781224410       32.8660306614
H               -42.5158057080       66.2115613402       32.6203549893
H               -43.5982471303       66.6523561703       30.5585704144
H               -45.1430280322       65.0605033125       29.4619468384
H               -43.4915698181       64.4624316333       29.4747385655
H               -44.6844731630       63.7982822201       30.5922808743
H               -46.0269957492       66.4640245375       31.2987357423
H               -45.4787977755       65.4399397489       32.6284756384
H               -44.9397796865       67.1165422584       32.5342105871
N               -37.2167549588       64.0312735051       30.6023116233
C               -36.8726631796       64.8579291899       29.4783240684
C               -36.4784252513       66.2242918485       30.0536305457
O               -35.4069968909       66.7178788919       29.7202179926
C               -38.0075293801       64.8661415994       28.4714094883
C               -38.1929952182       63.6450548760       27.5628211563
C               -38.6583060913       63.9064098823       26.2799782024
C               -38.0437147032       62.3029563482       27.8777936013
C               -39.0250630858       62.9329871693       25.4111629300
C               -38.4242937098       61.3003951441       26.9986881035
C               -38.9675643541       61.5851773107       25.7649713345
O               -39.4588885950       60.6839379573       24.8694261885
H               -38.1746596700       63.9444040825       30.8807569761
H               -35.9465068436       64.4518577707       29.0187610576
H               -38.9308946856       65.0356354661       29.0439489959
H               -37.8637409200       65.7366716673       27.8379223578
H               -38.7598579160       64.9267423981       25.9631179494
H               -37.6172571166       61.9930059892       28.8533746836
H               -39.4049571481       63.1801643824       24.4118447689
H               -38.2938391566       60.2494805711       27.3112480299
H               -39.4691096039       59.7654990922       25.1852088339
N               -37.2919967893       66.7750729905       30.9419728367
C               -36.9317922127       67.9794593672       31.6928584108
C               -35.4190417079       67.9158316058       31.9168280606
O               -34.6866252814       68.8368075766       31.6233894266
C               -37.7710496557       68.1054717756       32.9809840620
C               -38.0315660699       69.5539007655       33.4625831327
C               -39.0517565156       69.6453921922       34.6166330314
N               -38.4313239749       69.3763093498       35.9005597029
C               -38.8620182535       69.7786594613       37.1020953551
N               -38.1023455868       69.4711081547       38.1667645681
N               -39.9433910781       70.5025627105       37.2679716087
H               -38.1670873440       66.3458314364       31.2064639961
H               -37.1032924886       68.8798639540       31.0712507816
H               -38.7366800473       67.6417287969       32.7799274301
H               -37.3100125026       67.5418828634       33.7877732154
H               -37.1085998406       70.0298526470       33.7758098656
H               -38.4346087461       70.1401466023       32.6339128793
H               -39.4896706645       70.6479550759       34.6549825480
H               -39.8784756516       68.9325879759       34.4456753445
H               -37.6960797130       68.6832425108       35.8864166022
H               -37.3767517987       68.7697322581       38.0720327066
H               -38.4745862654       69.6054171529       39.0970827147
H               -40.6561140888       70.7513264204       36.5381829677
H               -40.2120043333       70.8279694831       38.1846119397
N               -32.9678002851       67.1065270505       28.4517321721
C               -32.7856523683       68.4604695497       27.9441303824
C               -31.8259550400       69.3421670029       28.7308635395
O               -30.8521904322       69.8463874424       28.1863103194
C               -34.0458053435       69.3386599498       27.9694168799
C               -35.0376191765       69.1761534855       26.8133279399
C               -35.7723935558       70.4848176861       26.5857629430
C               -34.3261907496       68.7388562729       25.5413132368
H               -33.8183415907       66.9094127698       28.9406795351
H               -32.3286660491       68.4017316767       26.9458912103
H               -34.5362146146       69.1878730179       28.9265355750
H               -33.6690824306       70.3784846954       27.9633503917
H               -35.7456667743       68.4196089416       27.0963661895
H               -36.4831943885       70.3826199061       25.7876398596
H               -36.2840039082       70.8081958544       27.4911049712
H               -35.0757269983       71.3023390929       26.3067101928
H               -35.0204894972       68.5704124721       24.7579745622
H               -33.5924573435       69.4801867020       25.2365713904
H               -33.7689975074       67.8134463671       25.7396209587
N               -35.7672329463       75.0113850138       27.5059791059
C               -37.1065491285       74.9928490233       26.9303619751
C               -37.2433930792       75.9142459168       25.6812544165
O               -36.8277052731       75.5595166670       24.5867902998
C               -38.0236293635       75.2719755545       28.1157523567
C               -37.1502209159       76.0687365329       29.0795777510
C               -35.7984180074       75.3999187270       28.9043714806
H               -37.2726717879       73.9965004372       26.5081781112
H               -38.9524648113       75.7921363851       27.8417934407
H               -38.2927327847       74.3314385729       28.5845909891
H               -37.0710135166       77.1266568725       28.7848622194
H               -37.5021156668       76.0359996486       30.1185957613
H               -34.9875058132       76.0831523046       29.1747703192
H               -35.7256991772       74.4993768341       29.5148103005
N               -37.9857697572       77.0055144060       25.8576254893
C               -38.8023992316       77.7484558740       24.9000991834
C               -38.3779652459       77.4838530817       23.4432525922
O               -38.9937128448       76.7232484286       22.7067466493
C               -38.8392258948       79.2388025958       25.2956049951
C               -39.4856589812       79.4777117172       26.6757166129
O               -40.3412094856       78.7558698279       27.1487209385
N               -39.0583379072       80.5777281829       27.3021125638
H               -38.1380794195       77.3071752126       26.8112606596
H               -39.8261372479       77.3576246173       24.9994462628
H               -37.8319917719       79.6495393759       25.3155166817
H               -39.4415512779       79.7876293625       24.5629790659
H               -39.4183225432       80.7756181150       28.2264524399
H               -38.2651689148       81.1089176390       26.9822424366
N               -37.7978766613       73.9704776559       21.8887178454
C               -39.0136862035       73.2401473674       21.6578620748
C               -39.5339045734       73.6405090163       20.2645488186
O               -39.7964051841       72.8047326477       19.4181985304
C               -39.9217890406       73.4824510869       22.8513899875
C               -39.1364220897       73.5524301619       24.1799082202
C               -40.1131289258       73.4787619516       25.3367806113
C               -38.0628960953       72.4702247069       24.3298961545
H               -37.7231896826       74.6296819737       22.6597513551
H               -38.7536143602       72.1853260952       21.5687329703
H               -40.4351893476       74.4419563994       22.7233818668
H               -40.6499614809       72.6981834095       22.8978113870
H               -38.6675568966       74.5467633489       24.2394167348
H               -39.6138199325       73.6889766474       26.2853695407
H               -40.8963465562       74.2351191887       25.2144375186
H               -40.5814190506       72.5103795464       25.4070348551
H               -37.6584508071       72.5033383265       25.3402371207
H               -38.4779690439       71.5079813618       24.1496624186
H               -37.2042503762       72.6345531996       23.6609341440
N               -38.0636607876       71.8833693438       17.1410629445
C               -38.6314807930       70.6194440650       16.7521445538
C               -40.1566310008       70.7141129122       16.5275901672
O               -40.8257088334       69.6986054445       16.4505751866
C               -38.2646584164       69.4872224089       17.7149515269
C               -37.2345058179       68.5301303584       17.1269834861
S               -37.0493044552       67.0039855479       18.1035510473
C               -38.7827799112       66.4392808231       18.1178941084
H               -38.2777887206       72.2231557488       18.0655060944
H               -38.2320513995       70.4105841408       15.7428019616
H               -37.9005201035       69.9203718002       18.6371694557
H               -39.1935362844       68.9537823881       17.9065521473
H               -37.5127972447       68.2452107074       16.1042658337
H               -36.2453707624       68.9836616011       17.1028252865
H               -38.7950443274       65.4797473514       18.6091303076
H               -39.3884159658       67.1319969881       18.6753968333
H               -39.1566413594       66.3620512550       17.0902211947
N               -40.6235722752       71.9524807135       16.3514724888
C               -41.9722552035       72.3130698115       15.9843527271
C               -42.0417113299       73.1802391801       14.7039910470
O               -43.0967694079       73.7144861988       14.3935570368
C               -42.6678736715       73.0616967967       17.1298575374
H               -40.0383299255       72.7598480003       16.5282262342
H               -42.5142479243       71.3885966575       15.7675738885
H               -43.7343867036       73.1583234093       16.9223102758
H               -42.5096777004       72.5359670684       18.0605794427
H               -42.2423386233       74.0630484147       17.2047629602
H               -38.8852918642       61.3899689237       21.6647102062
H               -41.2315746570       60.2757073671       19.4643876634
H               -45.2003567106       59.3209902172       21.5071788885
H               -46.1353440428       57.7057235214       31.0963219812
H               -46.0557669369       61.0528895196       32.3680913445
H               -41.6312353014       62.9407885463       30.4284758200
H               -40.5286425728       64.3456771968       33.3054624259
H               -36.9572663309       63.1843520351       30.4429702425
H               -35.0067342416       67.0970263540       32.3162783241
H               -32.9455823932       66.5233084587       27.7666318587
H               -31.9877619418       69.5145645385       29.7025103973
H               -35.4212847605       74.1807098812       27.4886968393
H               -37.5722485750       77.9407650264       23.0663545675
H               -37.1246361952       73.3928168285       22.0405573771
H               -39.6633005229       74.6057596437       20.0375071605
H               -37.1657252993       71.8322471101       17.1079211865
H               -41.2269729991       73.3005459855       14.1367805702
