 395 
 
N                36.1697879222       23.5120607753       86.4583284451
C                34.8714424865       23.6773632809       85.8393325776
C                35.0436044021       24.7560118497       84.7605992723
O                35.8593093973       25.6553372371       84.8861353618
C                33.7905881628       24.0334861637       86.8539055471
C                33.3297555092       22.7872819969       87.5996650184
S                32.4160180433       21.6597059733       86.5066912584
C                30.8381557015       22.5521345235       86.3628106634
H                36.3947972766       24.1652740477       87.1936671276
H                34.6150302156       22.7280438370       85.3548457990
H                34.1786497513       24.7659831349       87.5647057952
H                32.9418772334       24.4925195464       86.3446891522
H                34.1819524064       22.2163129398       87.9673804426
H                32.6776448111       23.0392768654       88.4350729938
H                30.0893237346       21.8064964345       86.1191636577
H                30.6030795292       22.9953221036       87.3246209230
H                30.8933280660       23.3220904480       85.6019677097
N                34.3080674670       24.5400835181       83.6723702611
C                34.5140080262       25.1462587018       82.3713083203
C                33.5869354794       26.3435343175       82.1538919907
O                32.9541519548       26.8550878434       83.0607948651
C                34.2404328429       24.0009948523       81.3921139835
C                34.9460732024       24.0824614255       80.0355334550
C                32.7195431822       23.7800906026       81.3103264734
C                36.4374956072       24.3677529025       80.1836355282
H                33.6067863264       23.8150183501       83.7033679258
H                35.5462366627       25.5066033087       82.3449673694
H                34.6789957558       23.1213531804       81.8683766140
H                34.8336796437       23.1018272442       79.5688009147
H                34.4893357743       24.7932409007       79.3446417009
H                32.3212899766       24.1440100480       80.3681540204
H                32.5163060186       22.7182765478       81.4139561172
H                32.1973542798       24.3025651488       82.1096385412
H                36.9380150717       24.1895517517       79.2337966560
H                36.6264573473       25.3989438151       80.4679960802
H                36.8714035051       23.7061009051       80.9287386736
N                33.5319903826       26.8123615585       80.8917266112
C                32.4074940638       27.6061596666       80.4579666619
C                31.6096355739       26.8131550374       79.4282449819
O                32.0174121995       25.7642442685       78.9579854403
H                33.9489717839       26.2543699891       80.1603013012
H                31.7936867325       27.8403117074       81.3315113133
H                32.7584545881       28.5382581574       80.0027664511
N                27.4664435699       30.7701435844       75.9675987101
C                26.9298869600       32.0121731411       76.5296311357
C                26.5975103643       32.9687161239       75.3611512279
O                27.2530993202       33.9512998448       75.0739614469
C                27.8006400209       32.6610842585       77.6383783456
O                28.9155167178       33.3964509868       77.2256071970
H                26.8006397559       30.0193844705       75.8681483020
H                25.9918299161       31.7463322447       77.0252674456
H                27.1604043432       33.3613059007       78.1806733803
H                28.1067351710       31.8594962774       78.3237708752
H                29.4590942481       32.8016269906       76.6657530250
N                24.1598125127       38.3428464966       76.0548224332
C                22.9452574051       38.8343881119       76.6851838818
C                21.9976958363       39.4944690429       75.7124065425
O                22.3663967644       40.3362713356       74.8932817797
C                23.4720768064       39.8387420283       77.7106578959
C                24.7060893388       39.1108635610       78.2320726596
C                25.2964465850       38.5021035645       76.9568988466
H                22.4215724642       38.0108269020       77.1899209141
H                23.7666414204       40.7586716970       77.2020651783
H                22.7403885217       40.0550097500       78.4865778930
H                25.4046245814       39.7782463116       78.7295789729
H                24.3985202025       38.3315910802       78.9300280618
H                26.0111704105       39.1984123874       76.5152612309
H                25.7698280268       37.5388082596       77.1588704952
N                20.5875859208       32.4069627197       80.9740253774
C                21.5177027809       31.7795458527       81.8966641733
C                22.4484566900       32.8562751045       82.4700480590
O                22.8479499832       33.7977495777       81.7997430495
C                22.2940282022       30.6921778706       81.1517982595
C                23.2622171351       29.9633819267       82.0708795447
C                23.7939909988       28.6591399290       81.4710909437
N                24.5218261121       28.8402536330       80.2303109517
C                25.7754447924       29.2872674012       80.1137603136
N                26.4114921175       29.8552374921       81.1219817390
N                26.3484718139       29.2659618630       78.9013426703
H                20.8325741461       32.4044580076       79.9948560424
H                20.9390868474       31.3393113570       82.7148288658
H                21.5719216067       29.9803225481       80.7534159231
H                22.8421388701       31.1567106956       80.3302129346
H                24.0740643171       30.6416298951       82.3333386533
H                22.7412483711       29.6967265791       82.9930191469
H                24.4366802699       28.1562020781       82.1983120062
H                22.9573469709       27.9881662601       81.2695394217
H                24.0999802550       28.4106224887       79.4211273254
H                26.0569376365       29.8224083175       82.0623258067
H                27.3841841542       30.1143138928       81.0579217867
H                25.9096891794       28.7497657219       78.1551377449
H                27.3341959884       29.4808507465       78.7885433520
N                22.7998421728       32.6870652124       83.7476820815
C                23.7962357458       33.5574515760       84.3473293903
C                25.0364819200       33.4656385513       83.4647597810
O                25.4798846037       32.3663156463       83.1184953420
C                24.0812335089       33.0673979683       85.7671719268
C                25.2053163940       33.7430550543       86.5058034598
C                25.2469709403       35.1204085134       86.7053690225
C                26.1583633398       32.9629829370       87.1478198880
C                26.2404667037       35.7105688676       87.4648987602
C                27.1154546693       33.5338224281       87.9682813749
C                27.1769823726       34.9157413529       88.1175954987
O                28.1764846607       35.5045369853       88.8415129081
H                22.3968350180       31.9523465433       84.3167657981
H                23.4210209784       34.5812643129       84.3502541181
H                23.1686128198       33.2124480009       86.3525647486
H                24.2812926228       31.9955080730       85.7189481006
H                24.4590646231       35.7459113476       86.3148900640
H                26.1318338939       31.8879351310       87.0505047074
H                26.2572105826       36.7760532992       87.6143537344
H                27.7955008226       32.8901114946       88.5091887288
H                28.5805247201       34.8471663244       89.4258385377
N                25.6403522884       34.5935293205       83.1096198896
C                26.7586048342       34.5082645613       82.1811907846
C                27.8453566035       33.5373253405       82.6595197532
O                28.4192409692       32.8097302704       81.8671809117
C                27.2581182176       35.9551793838       82.0321132661
C                26.5497966574       36.7274991482       83.1473525653
C                25.2362132370       35.9743135424       83.3105963110
H                26.4100789128       34.1038375239       81.2237884701
H                28.3416992230       36.0124906707       82.1082368982
H                26.9682782212       36.3433384663       81.0576859645
H                27.1208896107       36.6777540715       84.0739272149
H                26.3948042585       37.7708581418       82.8876247313
H                24.8019507230       36.1294850234       84.2929489903
H                24.5115424013       36.2535029469       82.5388534753
N                28.1630218968       33.5956638044       83.9740404634
C                29.2406228756       32.8103134440       84.5427129828
C                28.8986956142       31.3373777576       84.8375103380
O                29.7246528530       30.5973239421       85.3540641326
C                29.7327856021       33.3969024463       85.8659439618
C                30.6964444887       34.5772018931       85.7801152803
C                31.2951282344       34.7767331660       87.1813676161
N                32.2157545358       35.8897107224       87.2534639919
C                32.0365296678       37.0543525937       87.8721502948
N                30.8968699896       37.3657687142       88.4787683876
N                33.0432462843       37.9297707976       87.8817274306
H                27.5871588833       34.1312038117       84.6073213607
H                30.0507836464       32.7832730393       83.8028949139
H                28.8581532434       33.6746426697       86.4542257658
H                30.2431490372       32.5815604600       86.3837674942
H                31.4896260462       34.3586490922       85.0654789887
H                30.1784772024       35.4797504173       85.4577357338
H                30.4886400450       34.9197723420       87.8983523118
H                31.8412871693       33.8723195855       87.4626809973
H                33.0912215068       35.7498366366       86.7675371642
H                30.0711272734       36.7892613296       88.4202031859
H                30.8085891415       38.2446047522       88.9627349362
H                33.9370589367       37.7015942476       87.4794253893
H                32.9554013973       38.8179026534       88.3476041847
N                27.6534024241       30.9264317381       84.5847895301
C                27.2566927925       29.5981546556       85.0065082447
C                28.0219969785       28.5314452140       84.2021395530
O                28.1501175455       28.6138107621       82.9943706906
C                25.7326237461       29.4958521631       84.8830611238
C                25.2194328676       28.0654949654       84.8818327981
C                25.4970637218       27.3689062492       86.2253419395
O                25.7330928497       26.1445703323       86.1881070255
O                25.4771015188       28.0606799351       87.2692282103
H                27.0039285061       31.4798136011       84.0343108950
H                27.5451227688       29.4839176956       86.0602438493
H                25.2957616637       30.0046279403       85.7460159384
H                25.4060135971       30.0177084226       83.9843497332
H                24.1350205374       28.0762545646       84.7451010138
H                25.6688081372       27.4692585501       84.0849041876
N                28.5004108562       27.4968621669       84.9220606141
C                29.4074291598       26.5162202345       84.3668250110
C                28.9387499326       25.0561012754       84.3838938432
O                29.6200960947       24.1967961165       83.8324886501
C                30.8042768449       26.5212762356       85.0633020665
O                30.8093190640       25.7050779961       86.2138922184
C                31.2878601069       27.9332897171       85.3440296409
H                28.3828917767       27.5060202441       85.9239860374
H                29.5573268795       26.8046054283       83.3211386077
H                31.4991868406       26.0402640867       84.3711365617
H                30.4472615531       26.2089943178       86.9545100655
H                32.3332305198       27.9026014273       85.6365659174
H                31.2049657807       28.5426205322       84.4511155510
H                30.7063283036       28.4034815316       86.1327499492
N                27.8202974422       24.7636894478       85.0407238079
C                27.3037325397       23.4170132958       85.1241020374
C                26.0651653387       23.2277578126       84.2434046716
O                25.9264542616       22.2256685904       83.5534545007
C                26.9593357448       23.0418691301       86.5766064862
C                26.3615859607       21.6603869592       86.6688817172
C                27.0775219803       20.5406485013       86.2585577777
C                25.0738946023       21.4767170240       87.1549022898
C                26.5142263770       19.2775379376       86.3081480550
C                24.5192774904       20.2102880666       87.2356090049
C                25.2323769143       19.1064314769       86.8036560655
H                27.2607723830       25.4766493819       85.4998278873
H                28.0834398689       22.7479980379       84.7529258695
H                27.8758602892       23.0923760989       87.1692671667
H                26.2619328934       23.7806166348       86.9752172544
H                28.0870638346       20.6572537566       85.8963946933
H                24.4992686548       22.3317234416       87.4847643158
H                27.0658756048       18.4222041157       85.9478872132
H                23.5224035162       20.0895217581       87.6364420454
H                24.7935092825       18.1223961511       86.8634379363
N                25.1709578636       24.2085782727       84.3010111902
C                23.9260236851       24.1091005318       83.5778438451
C                24.1098284457       24.3889203967       82.0823851082
O                24.9027755808       25.2241856766       81.6487139798
C                22.9273723330       25.1363764326       84.1148256203
C                22.4742312653       24.8475825745       85.5493646450
C                22.0588799958       26.1447510438       86.2359291032
C                21.3251260072       23.8450798656       85.5542679842
H                25.3425381762       25.0117425215       84.9023122127
H                23.5617078132       23.0846490624       83.7099668230
H                23.4182812910       26.1084541581       84.0686011007
H                22.0600070109       25.1777549501       83.4537715223
H                23.3205741074       24.4222686297       86.1019077840
H                21.7334690165       25.9513784759       87.2533750544
H                22.8946140422       26.8387826390       86.2844866652
H                21.2478338280       26.6178257266       85.6897154634
H                21.0267333095       23.6106108463       86.5735207183
H                20.4670732116       24.2501321172       85.0221628811
H                21.6259057084       22.9164122142       85.0757603623
N                23.2894809302       23.7203765213       81.2710620745
C                23.1917449317       24.1028311134       79.8663503606
C                22.4195679862       25.4262483622       79.7393601754
O                21.8982455434       25.9800615650       80.6937237688
C                22.4141553825       22.9586997085       79.2060558819
C                21.5088830288       22.4842481805       80.3439174642
C                22.3541333911       22.6643972347       81.6149469237
H                24.2055257227       24.2327581820       79.4796924234
H                21.8440144864       23.2944826079       78.3436477619
H                23.0996446028       22.1652542789       78.9103696557
H                20.6298306040       23.1251574120       80.4102001577
H                21.1913641720       21.4524011088       80.2199540717
H                21.7230092364       22.9445897841       82.4593620814
H                22.9085450835       21.7532972630       81.8648779683
N                17.5585363241       16.8354178955       84.3055622229
C                18.0294091417       17.5795531499       85.4607224999
C                16.9307615572       17.7937089480       86.5122144061
O                16.4783806836       18.8980266623       86.7601070019
C                18.6028772928       18.9369986919       85.0380850450
C                19.7232652005       18.8525865064       84.0051576464
C                21.1041835176       18.4708141573       84.5585222599
N                21.1405188513       17.2797559105       85.3860857512
C                21.3038012388       16.0113358267       85.0144237014
N                21.3335291336       15.6607826959       83.7287316955
N                21.5290725282       15.1093203034       85.9618204844
H                17.0591341479       17.3512400158       83.5945835024
H                18.7888340242       16.9549444162       85.9408989129
H                17.7800564770       19.5278978556       84.6314846588
H                18.9532304532       19.4409220193       85.9392532296
H                19.4450381864       18.1512739900       83.2244129217
H                19.8393654306       19.8343039497       83.5463378354
H                21.7909371185       18.3344540949       83.7212380323
H                21.4774998389       19.2854971104       85.1806230821
H                21.1419531999       17.4252973005       86.3830558087
H                20.8786396109       16.2361798128       83.0265404603
H                21.4089176784       14.6786154470       83.5182068930
H                21.5244606012       15.4099970307       86.9413776663
H                21.5130147228       14.1262672637       85.7533242414
N                18.8049182671       17.9785502272       90.8754825016
C                19.7487818894       19.0538624543       91.1023156744
C                18.9746996272       20.3417717956       90.8006619325
O                18.2943040114       20.4643252862       89.7915566142
C                21.0010310495       18.9365836268       90.2118797179
C                20.6544741262       18.7208236167       88.7362917774
C                20.4065236741       17.2217136165       88.4078403556
O                21.4255025370       16.4965901582       88.3174854729
O                19.2388070655       16.8442401141       88.1904138443
H                18.2443699440       18.0778956001       90.0380341696
H                20.0511431628       19.0046349260       92.1530904708
H                21.5906988019       19.8480480359       90.3335329917
H                21.6045883069       18.0931457440       90.5603795103
H                19.7716525235       19.2999899105       88.4610956891
H                21.5031663326       19.0411760016       88.1276349222
N                17.3043618081       35.5377390986       85.3795436915
C                18.4973020914       34.7704391831       85.1425437804
C                18.3415484793       33.4460405652       85.8459967169
O                17.5845967981       33.3522814547       86.8098620955
C                19.7096470180       35.5692673823       85.6506806238
O                19.6605531622       36.8663025521       85.1038275146
C                21.0137617259       34.8699770067       85.3248995113
H                17.0739658218       35.7715458511       86.3393690813
H                18.5975189064       34.6211704844       84.0635653635
H                19.6318300507       35.7131255459       86.7342901817
H                19.7581212641       36.8061062724       84.1444595716
H                21.8270345319       35.4746471986       85.7161628079
H                21.0511990660       33.9005695157       85.8093796405
H                21.1036475635       34.7455026865       84.2482705089
N                20.8084804734       30.2613522108       87.5482307388
C                22.1530521245       29.9917832844       88.0193849662
C                22.1393478504       28.8046656283       88.9653555030
O                21.2071200711       28.6491565426       89.7447474041
C                22.6914296964       31.1584804927       88.8570547418
H                20.0660817150       30.1655378492       88.2356786758
H                22.7895531272       29.8130614619       87.1487007870
H                23.7238995316       30.9820653249       89.1505355054
H                22.6537629525       32.0936493568       88.3041382273
H                22.0918539234       31.2793315998       89.7568252399
N                23.2031888504       28.0012056739       88.9343882274
C                23.3392969734       26.9259717220       89.8928432310
C                23.8670963866       27.3764469370       91.2681953068
O                23.7919795206       26.6277114235       92.2262675504
C                24.2908209602       25.8335599255       89.3787394475
O                25.6276179141       26.2572264725       89.3902776374
H                23.9927244845       28.1718336096       88.3066792393
H                22.3518991860       26.4831277804       90.0675821510
H                24.2207435627       24.9773816935       90.0549448917
H                23.9857778592       25.5229763903       88.3730988967
H                25.7575343389       26.8575053853       88.6183882835
N                29.6785826296       14.6389783912       88.1426212001
C                29.2974726124       15.4554950694       87.0012709562
C                29.2759666002       14.4918571334       85.8035787277
O                30.2892010793       14.2617987854       85.1531920230
C                30.3282533822       16.5650299161       86.7589706936
C                30.5399349377       17.5129549029       87.9097842191
C                29.6678993665       18.5712801523       88.1433940155
C                31.6741568559       17.4028322721       88.7049096076
C                29.9455316617       19.5175666719       89.1149921718
C                31.9565569245       18.3531083275       89.6728893158
C                31.1009314366       19.4236190143       89.8730350280
H                30.5661426946       14.1527829119       88.0515474089
H                28.3087257023       15.8666175650       87.2142638406
H                31.2689827753       16.0756041401       86.5000486906
H                29.9771418180       17.1246998208       85.8906194764
H                28.7688914953       18.6650062218       87.5551943483
H                32.3473230280       16.5757073375       88.5433100277
H                29.2559313717       20.3334873131       89.2742802789
H                32.8732663958       18.2704820663       90.2374656537
H                31.3251925673       20.1819202797       90.6075682247
N                28.1257820212       13.8591673666       85.5337358667
C                28.1745781871       12.5983261875       84.8104580017
C                28.1917262430       12.7270299338       83.2981881851
O                28.5716211686       11.8030035633       82.5854952039
C                26.9228111815       11.8613322050       85.2927914233
C                25.9381653484       13.0001425661       85.5375752896
C                26.8227041591       14.0888766433       86.1420719217
H                29.0754436885       12.0440300298       85.0877373714
H                26.5723278000       11.1258348161       84.5719288038
H                27.1553779321       11.3517983639       86.2288165371
H                25.5047220983       13.3376402125       84.5952715524
H                25.1339716749       12.7119032320       86.2094968339
H                26.4632641541       15.0906694707       85.8927729930
H                26.8672065337       13.9786160085       87.2282989346
N                27.7841937260       13.9013018341       82.8097104773
C                27.5736020392       14.1767110576       81.4068245106
C                28.6270704931       15.1491028242       80.8181144731
O                28.3945029774       15.8096462360       79.8169165527
C                26.1552818152       14.7288672341       81.1824107023
C                25.8348352176       15.9347238316       82.0595915364
O                26.2901829908       16.0922408953       83.1892692126
N                24.9994124152       16.8192832918       81.5083165520
H                27.4212269413       14.6234849721       83.4320379859
H                27.6811892862       13.2273396209       80.8659490243
H                26.0545688047       15.0010479406       80.1318988156
H                25.4256102720       13.9505535349       81.4175209001
H                24.6923509721       17.6080785455       82.0569157828
H                24.6022679357       16.6840024911       80.5945151712
N                29.7885953776       15.1768996450       81.4828395940
C                30.9182402317       16.0283228749       81.1639167508
C                32.1402204019       15.1519295472       80.8173830698
O                32.2461821211       14.0018221472       81.2154085238
C                31.2635322330       16.9073183370       82.3819316169
C                30.0870177286       17.7619760054       82.8661478231
C                29.9196872267       19.1193452350       82.1651033038
C                30.5367886001       20.2818110105       82.9582413867
N                29.7901898191       21.5407425607       82.6717709881
H                29.9205910335       14.5678498805       82.2798963980
H                30.6379364325       16.6326442103       80.2969343487
H                31.5512664136       16.2269216034       83.1862585401
H                32.1216693774       17.5292707367       82.1281572025
H                29.1736587853       17.1782067929       82.7430872409
H                30.2073928485       17.9249878523       83.9364492787
H                30.3505203636       19.0627680935       81.1658915840
H                28.8487133575       19.2967029952       82.0604036210
H                30.4775019080       20.0805859116       84.0282359595
H                31.5854500602       20.4263665241       82.6959985041
H                30.0864052996       22.3624118537       83.2412808925
H                29.8960149754       21.8030876074       81.6817890659
H                28.7822725220       21.3967249877       82.8434178861
H                36.2249821696       22.6926336791       86.8264219509
H                30.7208431275       27.1497402258       79.1171848621
H                27.7954913112       30.9300154805       75.1453040179
H                25.7983748002       32.7959153843       74.7853715350
H                24.2235148075       37.4535961072       76.1780123784
H                21.0274663169       39.2523270514       75.7170901032
H                19.7907406697       31.9913114855       81.0216877039
H                22.3287094558       25.8684863170       78.8470764096
H                18.2597075829       16.4621833840       83.8824134721
H                16.5640820040       17.0130857556       87.0183502937
H                19.2493755265       17.1995937317       90.8000867284
H                19.0175907628       21.1116819704       91.4373711858
H                17.3661069029       36.3282818144       84.9538328063
H                18.8531314275       32.6477986046       85.5280459984
H                20.7600316503       31.1077687744       87.2461848606
H                24.2720123994       28.2844916296       91.3754233753
H                29.7461199217       15.1584463352       88.8744625554
H                32.8763720805       15.5220207093       80.2507145267
