 472 
 
N                65.6703484488       53.8617538120      209.4439221619
C                64.7278361006       52.7540782464      209.3013819833
C                64.1429486153       52.3439577093      210.6561495119
O                62.9356983376       52.0679791125      210.7811470165
C                65.3086784627       51.5768250203      208.5356967514
C                65.8090839280       51.9730200215      207.1793790171
C                64.2985452681       50.4772592765      208.5278572831
C                66.5480715657       50.8900365542      206.4590532361
H                66.5028587847       53.6819780845      209.1407306306
H                63.9691413927       53.1135898270      208.7485339050
H                66.1271035625       51.2398829240      209.0337056658
H                65.0169026443       52.2059504759      206.6218979176
H                66.3989463149       52.7528135990      207.2563792023
H                64.6713511258       49.6744425452      208.0492148780
H                64.0673763876       50.1948987794      209.4531546772
H                63.4857426107       50.7713081005      208.0613244495
H                66.7814190236       51.1709716041      205.5505774734
H                67.3926571100       50.6814662993      206.9629437424
H                66.0001674138       50.0626410711      206.4271616789
N                61.6299345440       55.1761115125      212.0676272935
C                60.4325609460       55.1998891108      211.2841067092
C                59.5699453390       53.9744031344      211.5864940479
O                58.3429664316       54.0425443543      211.7830711774
C                60.7486538294       55.3569581245      209.8355317777
C                61.1432960222       56.7946883317      209.5864826321
C                59.6255321597       54.8165274829      208.9235195545
C                61.5630651897       56.8902965789      208.1466368896
H                62.3773195678       55.1531087856      211.5670056622
H                59.8700977266       55.9916791922      211.5826935412
H                61.5202542762       54.7647457622      209.5854359876
H                60.3758996888       57.3846686705      209.7058290109
H                61.8952606860       57.0495967608      210.1431091293
H                59.8549617394       54.9489581599      207.9888556569
H                59.4727812829       53.8614567294      209.1190939607
H                58.7893667296       55.3242203549      209.1432758319
H                61.8444269945       57.8532680386      207.9779921769
H                62.3489163013       56.3191329184      207.9951529296
H                60.8330087538       56.6663361944      207.5588404293
N                60.1872462977       52.8142351440      211.6126044960
C                59.5396015463       51.5845951770      211.9896482615
C                58.8682045078       51.7218263811      213.3716519672
O                57.7765553769       51.1963307905      213.5856970833
C                60.5535631226       50.4716907424      211.8994136171
O                59.9009247601       49.2750077242      211.8498638623
H                61.0714176418       52.7121947008      211.3967448392
H                58.7937633410       51.3769733595      211.3726320746
H                61.1138657168       50.5866093392      211.1070044877
H                61.1366072501       50.5041608949      212.7217698732
H                60.5029602738       48.5960913661      211.8395539661
N                55.8026227917       54.0293300747      213.0814359804
C                54.6846297093       53.3442395001      212.4643020879
C                53.9913989786       52.3896294458      213.4127989547
O                52.7756104317       52.2488180990      213.3925580012
C                55.0012132750       52.5934122034      211.2291041361
S                55.4954667796       53.6454848085      209.9665665527
H                56.6196480262       53.7207349474      212.7959033227
H                54.0550525964       54.0945737231      212.2287292969
H                55.7663528418       51.9627430245      211.4226422660
H                54.2350498350       52.0722494289      210.9166140511
H                56.4757072509       54.3023675634      210.3138420497
N                54.7031489702       51.6637414083      214.2259561034
C                54.0246286781       50.7916754646      215.1789236486
C                53.1079330733       51.6051392697      216.0602189633
O                51.9407925408       51.1802610208      216.3424992005
C                55.0060760895       49.8471263718      215.9077215936
C                55.0534565359       48.4630651884      215.0912835414
C                56.3938159275       47.9885731695      214.4817338550
C                56.2407103570       46.9703681420      213.3559206207
N                57.5106535092       46.4127834071      212.8537286342
H                55.6173721590       51.6351880369      214.2730222036
H                53.4092064807       50.1445814844      214.6884425100
H                55.9064802974       50.2487709273      215.8778291154
H                54.7118683458       49.6892877196      216.8105840913
H                54.7398110444       47.7509365789      215.7102388753
H                54.4158682175       48.5273763629      214.3320033052
H                56.8864811355       48.7752786489      214.1439465288
H                56.9402583461       47.5754016729      215.2252203013
H                55.7041443425       46.2004594197      213.7068962844
H                55.7706619798       47.3915012042      212.6154965498
H                57.3739473503       45.8067960532      212.1814566340
H                58.0513985021       47.0924711768      212.5176911762
H                57.9920868480       45.9946802595      213.5258926034
N                50.7884830650       54.3457779422      213.2326429055
C                50.3569161934       53.7241973566      211.9867785822
C                49.2390342542       52.7552970187      212.3625674635
O                49.4706403610       51.5326108274      212.6605512449
C                51.5319202152       53.0227966261      211.2818321661
S                51.3086044950       53.2137242414      209.6756995247
H                51.4396828461       53.8412214518      213.6734234066
H                50.0168325739       54.4011032246      211.3829055928
H                52.3828408188       53.4464882099      211.5592281110
H                51.5436816438       52.0650405466      211.5364736495
H                52.0483660788       52.4099814952      209.0591197941
N                50.9452829085       48.4022353951      208.6207779217
C                52.2209852154       48.9742842625      209.0628790005
C                53.2562860105       48.3956816114      208.0909396692
O                53.2071917304       47.1792225277      207.8298163173
C                52.4689403455       48.6521641017      210.5363864297
O                53.6377081366       49.2364667468      211.0714469738
H                51.0191898286       47.5239842016      208.3966144830
H                52.2446204238       49.9706540379      209.0033398113
H                51.7036773954       48.9729251796      211.0633638514
H                52.5307200031       47.6583239740      210.6119686240
H                54.0497613264       48.6247348625      211.5689633321
N                54.1469311339       49.2103090076      207.5115446150
C                55.0899694027       48.7249829797      206.5535603880
C                56.2807465248       47.9838256018      207.0892494472
O                56.6552549936       48.1281115709      208.2306904631
C                55.5904334339       49.9647088672      205.8817386145
C                55.3260957938       51.0204738236      206.7360329688
C                54.5149228996       50.5387151669      207.8934671466
H                54.5932390643       48.1061500233      205.9180029280
H                56.5417083138       49.8871707907      205.6414053962
H                55.0777180072       50.0952515483      204.9909398320
H                56.1908176482       51.4026545779      207.0518401585
H                54.8226733417       51.7472558875      206.2657829186
H                55.0680075110       50.5581732532      208.7532730161
H                53.7177647901       51.1228909299      208.0679447196
N                56.9392745504       47.1904402760      206.2747825141
C                58.0460256604       46.3401868437      206.6621834466
C                59.3600672012       47.1047484158      206.5802630857
O                59.5160853081       48.0532794160      205.8024818576
C                58.1675067448       45.0849759307      205.8319402656
O                59.0261478996       45.2800906193      204.6796245830
H                56.7329521727       47.1167060207      205.3714484932
H                57.8679129305       46.0690830903      207.6041930880
H                58.5387771642       44.3471695941      206.3793449913
H                57.2636013083       44.8111071268      205.5005275064
H                59.0954638524       44.5188352776      204.2410937408
N                60.3257419851       46.6707041087      207.3742164364
C                61.5998029451       47.3085379314      207.3376398922
C                62.2266711303       47.2475756565      205.9774467165
O                62.8196875902       48.2238520740      205.5149114334
C                62.4870187730       46.7589301089      208.4370402678
C                62.1678063386       47.2345124453      209.9123485219
C                61.8370913680       46.0734542373      210.8492321976
C                60.3974904361       45.5038921834      210.6045973931
N                60.1144964255       44.2927258597      211.3701139966
H                60.2475328433       45.9856087459      207.9577745419
H                61.4998802073       48.2899660292      207.5503330176
H                62.4270429644       45.7621349002      208.4303735295
H                63.4439656330       47.0054110024      208.2556971610
H                62.9295883852       47.7286192748      210.2686684711
H                61.3703496255       47.8267700083      209.8579971630
H                62.4758113489       45.3303391028      210.6772706156
H                61.9053976165       46.3684083608      211.7750444700
H                59.7463818413       46.2088882542      210.8772514498
H                60.2853914645       45.3061628731      209.6507404527
H                59.2581814159       43.9981891588      211.2400894010
H                60.6955452144       43.6134538973      211.1499320447
H                60.2174533171       44.4468453945      212.2892343835
N                62.1069163844       46.1124480075      205.2970031142
C                62.5375069883       45.9464766814      203.8865610464
C                61.9491209715       47.0746323759      203.0247799073
O                62.6936361531       47.7827692578      202.2978607527
C                62.1474639135       44.5365218971      203.3725544670
C                62.2877112720       44.1095237949      201.8709199408
C                63.6867987936       44.1343954004      201.2794701989
C                64.6449805794       43.0465457174      201.7680139122
N                64.4953555583       41.7097396247      201.1594160582
H                61.7491211826       45.3488008206      205.6295212611
H                63.5219844635       46.0312184374      203.8211754753
H                62.6971631240       43.8938497951      203.8905643883
H                61.1933657466       44.4140974749      203.6090971026
H                61.9529784860       43.1963717219      201.7774207578
H                61.7279252837       44.7331730563      201.3332117454
H                63.6293034167       44.0549375080      200.2919585279
H                64.1126861942       45.0260234012      201.4893806055
H                65.5822683261       43.3522142890      201.6048888908
H                64.5117109837       42.9471371119      202.7452430759
H                65.1411568584       41.1356884309      201.4672927824
H                63.6729819798       41.3628906051      201.3435619761
H                64.5865409507       41.7703204819      200.2383501879
N                60.6183663779       47.2971748877      203.1421675192
C                59.8756683814       48.2190280147      202.3210397517
C                60.2718409479       49.6820473495      202.5816233742
O                60.2813953641       50.5154767634      201.6431743510
C                58.3736796377       48.0186804173      202.5198251129
C                57.8327224458       46.6505590736      202.1837068727
C                56.3723332644       46.4613867615      202.6082290170
O                55.9663841806       47.1570326732      203.5488857727
O                55.6498205211       45.6274290070      202.0077402195
H                60.0995626980       46.8814056399      203.7693733188
H                60.1048511844       48.0312918971      201.3644930629
H                58.1707315879       48.1927428390      203.4748345280
H                57.8922708063       48.6920132246      201.9638696163
H                57.8702660778       46.5257794056      201.1856640893
H                58.3713378743       45.9597788171      202.6135300038
N                60.5495078738       50.0165912156      203.8654754743
C                60.9922651749       51.3258045097      204.3014191624
C                62.3134116477       51.6646207647      203.6852307690
O                62.5173042735       52.7357361086      203.1049150097
C                61.0192296801       51.4470403177      205.8242846671
C                59.5855064569       51.2534792751      206.3549175597
C                61.6111344136       52.7257323211      206.2841599804
C                59.5021945381       50.9804095462      207.7546906359
H                60.4815484094       49.4137647706      204.5567835700
H                60.3105709579       51.9820142957      203.9480289065
H                61.5891132079       50.7206051330      206.1823046364
H                59.0808501187       52.0969287347      206.1885723422
H                59.1510223421       50.5157824026      205.8624902342
H                61.5783487826       52.7917245031      207.2520658012
H                62.5514616595       52.7849374731      205.9628668762
H                61.0987522149       53.4854045847      205.8745908130
H                58.5544220263       50.8775932710      208.0412730368
H                59.9746790304       50.1138664346      207.9582234220
H                59.9258153201       51.6949879139      208.2858498434
N                63.2658439837       50.7624219414      203.7870991202
C                64.5593258000       50.9139949869      203.1533942293
C                64.5155144142       51.0283166757      201.6669434903
O                65.2453253653       51.8381168920      201.0581553696
H                63.1818181052       49.9673110140      204.2519916142
H                64.9867486227       51.7391627068      203.5203696480
H                65.1497925057       50.1450357517      203.3957324958
N                63.6480890624       50.2342864415      201.0390690834
C                63.3790060933       50.3484413860      199.5965600912
C                63.0355904936       51.7625597006      199.2240164031
O                63.6430342365       52.3823082158      198.2916725259
C                62.3016578487       49.3784600249      199.1689392962
H                63.1635322842       49.5806541230      201.4340133757
H                64.2258513080       50.1067843435      199.1109980893
H                62.1679302958       49.4435111939      198.1909192365
H                62.5748065606       48.4500932801      199.3969557157
H                61.4639969415       49.5978942365      199.6358552704
N                62.0209976481       52.3171171269      199.9534076035
C                61.6164934241       53.7169703780      199.8668550622
C                62.8106342577       54.6504824700      200.0647203893
O                63.1853724950       55.4700224905      199.1739680697
C                60.5217171674       54.0560055712      200.7790450597
C                60.0634876518       55.4538134174      200.6750148542
S                58.8523525672       55.9258525780      201.9296448792
C                59.9563275988       56.0409179827      203.2551074741
H                61.5389142394       51.8563749025      200.5589395228
H                61.2931905052       53.8347292778      198.9054835032
H                59.7434347373       53.4557995178      200.6209301647
H                60.8357485769       53.9203094969      201.7181544268
H                60.8232936837       56.0713233016      200.7346393051
H                59.6172311910       55.5832581249      199.7770233320
H                59.4473129435       56.3095408413      204.0898157425
H                60.3606408224       55.1502187385      203.4336229310
H                60.6483570463       56.7012619939      203.0825668371
N                63.4366623459       54.5543949591      201.2433367186
C                64.5653179378       55.3983788212      201.5605636563
C                65.6341220142       55.3579990709      200.4843321677
O                66.1539365759       56.4184452356      200.0941316147
C                65.1246056691       55.1136778106      202.8870574807
C                64.4358030340       55.7705436086      204.0130470538
C                65.0660829237       55.2274293518      205.3234145601
C                64.5369895749       57.2388234954      203.9070915654
H                63.2166280491       53.9653886096      201.8860397048
H                64.1988483573       56.3344233585      201.5613299126
H                65.1156404155       54.1259515770      203.0329113592
H                66.0863772380       55.4111727079      202.9040717705
H                63.4584520861       55.5654645969      204.0458304115
H                64.6065258025       55.6327369953      206.1056707505
H                64.9481142966       54.2440079661      205.3563402933
H                66.0166617626       55.4547530920      205.3391946860
H                64.1476430242       57.6740757306      204.7182154889
H                65.4916312091       57.4994458179      203.8407707472
H                64.0520315350       57.5491241063      203.1110689238
N                64.2023125728       63.3738162659      205.7051581398
C                62.8481594803       62.9003754685      205.4663125140
C                61.9504411832       63.2376453438      206.6154507572
O                60.7649515063       63.0993642358      206.5051933676
C                62.8124825022       61.4162409582      205.1763630022
C                61.5267471338       60.8210661759      204.9608123609
C                61.6306588222       59.7709600988      204.0559027426
C                61.0951576833       60.1338715456      206.0178203570
H                64.7733770473       62.7040996130      205.9283003488
H                62.4961223444       63.3614680543      204.6523364407
H                63.3826705639       61.2413396346      204.3730923578
H                63.2557899374       60.9559724623      205.9587224105
H                60.9063007912       61.5597197228      204.7165989052
H                60.7635319175       59.3115552329      203.8987298673
H                61.9268071452       60.1356248943      203.1396650309
H                62.3081274665       59.1073794847      204.3251079804
H                60.1919274051       59.7431284422      205.8837018262
H                61.7215141134       59.4380199660      206.3046525246
H                60.9900055338       60.7768810342      206.8339246415
N                54.9497711005       50.7125433323      194.5147124900
C                55.1972145622       50.1325412727      195.8190055094
C                55.7841620132       51.1133045945      196.8198464431
O                55.3857624190       51.1558759947      197.9673584680
H                55.4595368514       50.3627876374      193.8560873659
H                54.3407191233       49.7843251322      196.1915955200
H                55.8218701621       49.3590436039      195.7353394869
N                56.7472137795       51.8987440560      196.4167923215
C                57.3300524884       52.9130340443      197.2439478575
C                56.3145423655       54.0084261149      197.5964212457
O                56.1692023216       54.3754011749      198.7113893113
C                58.6252611817       53.4497906869      196.5840093143
C                59.6966109820       52.3927445651      196.1569488737
C                59.4704417436       51.7939460640      194.7858967059
O                58.7157567872       52.3244776167      193.9074523513
O                60.0014002523       50.6912526753      194.5979742741
H                57.1139696584       51.8596991328      195.5611036444
H                57.6046904767       52.5099646440      198.1062640973
H                58.3597815181       53.9618385553      195.7733779550
H                59.0579067541       54.0727551006      197.2258309330
H                60.5650906193       52.8075678116      196.1622611057
H                59.6468273895       51.6496146744      196.8124387542
N                53.2647891623       53.5335992558      198.0063626286
C                52.3639522917       52.9523363865      198.9921679705
C                52.9537916495       53.0272511950      200.4244095093
O                52.2498353992       53.4074794600      201.3892072591
C                52.0009795597       51.5626913653      198.6294193117
C                50.9159508523       51.4190288538      197.5707839263
C                50.9491542631       50.0275170172      196.8477116873
C                49.5706906333       49.4720581219      196.5821245844
N                49.5306908033       48.4319875786      195.5585327963
H                53.5960218755       52.9360332276      197.4143230313
H                51.5296608655       53.5023957612      199.0168382569
H                52.8197803931       51.0960908036      198.2856662953
H                51.6939478333       51.0706283570      199.4445243736
H                50.0289079994       51.5228111961      197.9922685368
H                51.0435424282       52.1164102863      196.8839138200
H                51.4322564758       50.1063370828      195.9992355459
H                51.4318678343       49.3779356480      197.4419084670
H                49.1947149133       49.0950372675      197.4219219900
H                48.9811853262       50.2242744255      196.2871455137
H                48.6712222538       48.1465576576      195.4060286136
H                49.8660651104       48.7592773494      194.7594937878
H                50.0401165699       47.7141641877      195.8080463028
N                54.2366086355       52.6867818338      200.5571793991
C                55.0415969208       52.8592591621      201.7348561655
C                55.0107186001       54.3146145913      202.2269609002
O                54.7711543051       54.6106992136      203.4420030083
C                56.4949387134       52.4157916480      201.5534284791
O                56.6415035453       51.1487598457      200.9194292027
C                57.1775803560       52.3063067198      202.8448225764
H                54.7328897200       52.3185586088      199.8608527425
H                54.6092184295       52.2778672189      202.4368893509
H                56.9022999351       53.1204753075      200.9794069218
H                57.4686536495       50.9514116969      200.8200019740
H                58.1315401999       52.0405259668      202.7330029415
H                57.1744759685       53.1775712435      203.3415077018
H                56.7443173772       51.6327208206      203.4327679762
N                55.2975837837       55.2464892288      201.3835188098
C                55.3563826776       56.6308181407      201.7580802923
C                54.0682048047       57.1309995867      202.3211393370
O                54.0660694454       57.9048418494      203.2757178973
C                55.7402019332       57.4853983480      200.6427855923
C                55.5671891154       58.9134504329      200.8566126330
C                54.8208934303       59.7935529854      200.1137294745
C                56.1823501827       59.6785666971      201.8269190877
N                55.0008061916       61.0194222999      200.5474207695
C                55.8121184620       61.0064422924      201.6352651646
C                57.0799913656       59.4086240464      202.8071457186
C                56.2437034083       62.0274325301      202.4452832216
C                57.5453747159       60.4091987010      203.5989648857
C                57.0868623456       61.7104461255      203.4253310776
H                55.4647537352       55.0917364861      200.4847502197
H                56.0516408173       56.6983708309      202.4711357766
H                56.6989106369       57.3289445304      200.3948720559
H                55.1874221633       57.2336201543      199.8302137760
H                54.2405061024       59.5322846122      199.3689061032
H                54.5903812575       61.7780538018      200.2085176672
H                57.3993187766       58.4905697387      202.9603739906
H                55.9457646364       62.9436732589      202.3206685254
H                58.1820386976       60.2196716664      204.3108324849
H                57.4126974753       62.4044167851      204.0344875731
N                52.9438946713       56.7124205062      201.7387061809
C                51.6347819690       57.0569513005      202.2258067988
C                51.3652321046       56.5748272597      203.6716130650
O                50.8490999036       57.3587998746      204.5030472140
H                52.9183735453       56.1769427914      200.9957371752
H                51.5277978470       58.0356445412      202.2246248624
H                50.9282187368       56.6566810463      201.6576714642
N                51.6934381714       55.3045604901      203.9746300117
C                51.7409213026       54.7963573230      205.3335659789
C                52.6555627369       55.6583779912      206.2200203147
O                52.2454602099       56.1213274372      207.3505196455
C                52.1856475231       53.3753166932      205.4399480433
C                51.1972179328       52.3777643177      205.0145799698
C                51.9612119000       51.1508581485      204.7009724136
C                50.1801966443       52.0138351185      205.9845041652
H                51.9344108233       54.6864427304      203.3507100538
H                50.8000162468       54.8938167155      205.6647470315
H                52.9913308222       53.2689340671      204.8786033209
H                52.4075147487       53.1865513379      206.3828698335
H                50.6607115767       52.7413540192      204.2380634126
H                51.3599280364       50.4232929748      204.3427337329
H                52.6276395574       51.3444559326      203.9530426666
H                52.4453654085       50.8211325228      205.4704367073
H                49.5548180021       51.3310823000      205.6268496617
H                50.6208340447       51.6389592893      206.7997615372
H                49.6563195487       52.8150857239      206.2567148829
N                53.9352003301       55.8503111744      205.7898928507
C                54.9020130929       56.5194186864      206.6389736759
C                54.4699095838       57.9101410153      206.9649889508
O                54.5068114058       58.2971599904      208.1031914179
C                56.2616926190       56.4860151714      206.0481601997
C                57.1206706360       57.4574698772      206.7694834270
C                56.7707441225       55.1232670395      206.1236949758
H                54.2176619456       55.5947518143      204.9840689325
H                54.9111814974       55.9983498954      207.4913572753
H                56.2765041765       56.7578553956      205.0802386609
H                58.0743725108       57.3776580667      206.4526086504
H                56.8147640099       58.3760779150      206.6093968461
H                57.1033357091       57.2578575143      207.7380358585
H                57.6674245412       55.0551058163      205.6625907654
H                56.8784579511       54.8454093351      207.0567571284
H                56.1515802092       54.4978799288      205.6563864903
N                54.0699098076       58.6887940803      205.9357764534
C                53.6725562766       60.0660923359      206.0901126863
C                52.5090306895       60.1702753303      207.0273842019
O                52.4212430664       61.1042498989      207.8738386705
C                53.3671084777       60.7867167722      204.7953381349
C                52.8943818873       62.2520307701      204.9099493307
C                53.7558519214       63.1642278122      205.5061596874
C                52.7396998437       62.8021706418      203.6212906534
H                54.0316640959       58.4092045443      205.0636813166
H                54.4741749972       60.5566777588      206.4924156741
H                54.1697917006       60.7813237252      204.2187677009
H                52.6401777069       60.2745141651      204.3417425468
H                52.0811493459       62.1496063151      205.4700519653
H                53.3747176688       64.0557647342      205.5421537031
H                53.9351908355       62.8709006532      206.4858782140
H                54.6397878804       63.1736584170      205.0642653942
H                52.4366371029       63.7472335762      203.6590321260
H                53.5538381657       62.7389212486      203.0726660444
H                52.0013256076       62.2957546208      203.0992418899
N                51.8996499179       58.4531641171      209.6109398134
C                52.5325147651       58.4108591036      210.9253461891
C                53.1922553072       59.7257015340      211.2378867273
O                52.8472597779       60.3585685776      212.2094052974
C                53.5297147595       57.3038475042      211.0378263032
H                52.2898554869       57.8795661490      209.0239636864
H                51.7770270154       58.2430773596      211.5780338487
H                53.8805823501       57.2599014667      211.9593319421
H                53.0763166401       56.4229943514      210.8365192979
H                54.2528426138       57.4395921574      210.3981437032
N                54.1550012500       60.1520018214      210.5109995301
C                54.7565106934       61.4306902773      210.7154185402
C                53.7305188963       62.5347550080      211.0920111586
O                53.9195848063       63.2841577889      212.1030835711
C                55.5658770908       61.8974901459      209.5642825793
C                56.6135582170       60.9065163399      209.0976899643
C                57.2059105078       61.4226350030      207.7948328978
C                57.5759929336       60.8046602843      210.1036470062
H                54.4661964727       59.7119078237      209.7692129532
H                55.3484617315       61.3288231553      211.5162888413
H                54.9323730300       62.0523992999      208.7828468891
H                56.0123073467       62.7476935795      209.7639980421
H                56.2458704713       60.0066476727      208.9068944348
H                57.8831082338       60.7816056166      207.4637296715
H                56.4864094690       61.5145533244      207.1158782885
H                57.6239567267       62.2994027281      207.9515229556
H                58.3324753264       60.2080609840      209.8152917317
H                57.9614435064       61.6968940197      210.3207197728
H                57.1815571529       60.4196272215      210.9284794811
O                57.2057444701       48.7534903823      210.9985402101
H                57.9790201089       49.0927805460      210.7047767009
H                56.6157666416       49.3402967559      210.6694675840
H                65.3697035658       54.5733494073      208.9821382698
H                64.7338199172       52.2939884411      211.4613663627
H                61.6677414471       55.9143656190      212.5809999772
H                59.3203130698       52.2395627970      214.0979761729
H                55.7613945112       54.9071368938      212.8871284481
H                53.4157842728       52.4833407307      216.4262651801
H                51.1356304533       55.1577298487      213.0587958680
H                48.2899942355       53.0698927697      212.3813439475
H                50.3399350436       48.4700872981      209.2833110015
H                65.9167938513       54.4822432093      200.0929904969
H                64.5182711100       63.7685441280      204.9606045032
H                62.3401874379       63.5770761410      207.4715375465
H                54.0898556543       50.5793423406      194.2849236278
H                55.7600458835       54.4264479019      196.8768439829
H                52.8272936475       54.1618225430      197.5331468471
H                51.7766672672       59.4902406360      206.9927918315
H                51.0319372870       58.2269870997      209.6878732065
H                52.9086438151       62.6638061208      210.5371533740
