84
Properties=species:S:1:pos:R:3 pbc="F F F"
N      26.76800000      10.05000000      13.36000000 
C      26.69900000       8.71500000      13.89800000 
C      27.77600000       8.52900000      14.94200000 
O      27.54900000       7.87400000      15.98100000 
C      26.84400000       7.67800000      12.79200000 
C      25.62800000       7.59200000      11.87300000 
C      25.88200000       6.75100000      10.64200000 
O      27.06800000       6.63300000      10.22400000 
O      24.88500000       6.23100000      10.03500000 
H      26.90100000      10.17700000      12.37600000 
H      25.76700000       8.58000000      14.42100000 
H      27.71400000       7.92400000      12.20500000 
H      27.02000000       6.71400000      13.25200000 
H      24.77000000       7.19600000      12.39200000 
H      25.36700000       8.57800000      11.51300000 
O      22.25100000       5.92800000      10.92300000 
H      23.15500000       6.09500000      10.62900000 
H      21.65100000       6.63700000      10.70400000 
N      20.02100000       6.21100000       6.91400000 
C      20.88100000       6.49200000       8.04400000 
C      20.38300000       7.74600000       8.72200000 
O      20.33100000       7.81100000       9.96800000 
C      22.34100000       6.59200000       7.61200000 
C      22.85200000       5.22500000       7.13500000 
C      24.14300000       5.33400000       6.35900000 
N      25.15600000       6.01300000       7.15500000 
C      26.26200000       6.51000000       6.63200000 
N      26.42700000       6.53400000       5.31600000 
N      27.21200000       6.99900000       7.42100000 
H      20.37600000       6.27300000       5.98400000 
H      20.77700000       5.70700000       8.77100000 
H      22.42300000       7.31600000       6.81500000 
H      22.92800000       6.93700000       8.44600000 
H      22.98500000       4.58200000       7.99300000 
H      22.12100000       4.76600000       6.48700000 
H      24.49400000       4.35700000       6.05700000 
H      23.95900000       5.91500000       5.46900000 
H      25.05700000       6.02600000       8.16000000 
H      25.82700000       6.04500000       4.68100000 
H      27.26700000       6.90500000       4.94100000 
H      27.15900000       6.89700000       8.42400000 
H      28.02000000       7.41900000       7.02800000 
N      17.46300000       6.82300000      10.93700000 
C      17.83900000       6.16300000      12.16300000 
C      18.38100000       7.19100000      13.12800000 
O      18.13400000       7.10100000      14.34800000 
C      18.87900000       5.09800000      11.84100000 
C      19.24200000       4.23000000      13.02100000 
C      18.07600000       3.43100000      13.51400000 
O      17.08500000       3.23300000      12.78000000 
N      18.14300000       2.92700000      14.73600000 
H      17.93300000       6.59100000      10.08400000 
H      16.97400000       5.72600000      12.62800000 
H      18.46600000       4.48100000      11.05900000 
H      19.76600000       5.57700000      11.45900000 
H      20.01700000       3.53300000      12.72900000 
H      19.63900000       4.81300000      13.83800000 
H      18.98200000       2.95300000      15.28000000 
H      17.39100000       2.36300000      15.06100000 
N      19.13600000       8.16600000      12.63000000 
C      19.69400000       9.17500000      13.50300000 
C      18.56700000       9.93500000      14.14500000 
O      18.58000000      10.15000000      15.37100000 
C      20.60100000      10.13000000      12.73500000 
C      21.96200000       9.54600000      12.39000000 
C      22.65200000      10.46600000      11.40100000 
C      22.81900000       9.39600000      13.63100000 
H      19.37300000       8.17200000      11.65900000 
H      20.22700000       8.70400000      14.30900000 
H      20.08300000      10.43400000      11.83900000 
H      20.75100000      11.01500000      13.34100000 
H      21.82500000       8.57800000      11.93000000 
H      23.64400000      10.10700000      11.16700000 
H      22.09000000      10.54200000      10.48100000 
H      22.74800000      11.45900000      11.82300000 
H      23.81400000       9.07300000      13.36500000 
H      22.90100000      10.34800000      14.14300000 
H      22.40500000       8.67600000      14.32100000 
H      26.00108504      10.48585764      13.53852047 
H      28.68071522       8.93217957      14.80438964 
H      19.71576976       5.36629382       6.97149762 
H      20.09279570       8.52973508       8.17287270 
H      16.59570167       6.65895524      10.76126462 
H      17.80675747      10.26789689      13.58713716 
