 420 
 
N                26.7202389039        8.0770549181       18.8945069751
C                27.0456109988        6.8275572770       19.5526500511
C                27.7230661337        7.0852230723       20.9081033092
O                27.4362684642        6.4559054882       21.9184580083
C                27.9396269751        5.9727863281       18.6642964883
C                28.1400305448        4.5930677417       19.2624538992
C                28.6075086454        3.5564813656       18.2350788113
O                28.7078449903        3.8571196665       17.0381578609
O                28.7984495401        2.3967361642       18.7144235689
H                27.0414700955        8.2046873166       17.9427896010
H                26.1134812820        6.2858397046       19.7740221224
H                27.4836322259        5.8678267015       17.6766938319
H                28.9062414802        6.4559692442       18.5180111231
H                28.8490676777        4.6038851350       20.0906053160
H                27.1979618924        4.2007242608       19.6587018713
N                28.6481448738        8.0459099139       20.8909152654
C                29.3657887221        8.4388337995       22.0803532771
C                28.4050631395        8.9115642023       23.1706308868
O                28.4820450727        8.5164747123       24.3343145952
H                28.8900066314        8.4825362803       20.0099658198
H                29.9455655280        7.5994970528       22.4799493348
H                30.0344114182        9.2569306675       21.8170760945
N                27.5268959097        9.8290059686       22.7671559005
C                26.5330179041       10.3612752192       23.6804835848
C                25.7287998431        9.2205090279       24.2974723300
O                25.5888070745        9.1228985641       25.5134629582
C                25.6535750585       11.3933047644       22.9669052140
C                24.3099689564       11.5774788654       23.6634770688
C                26.4073086091       12.7186811112       22.8965953072
H                27.5179350607       10.1355349386       21.7961837933
H                27.0501805042       10.8398514025       24.5234744943
H                25.4718511552       11.0205143350       21.9535889004
H                23.7682147650       12.4043233411       23.2138498613
H                23.7016012882       10.6804541605       23.5820973273
H                24.4528838646       11.7888416996       24.7193685716
H                25.8210892828       13.4380126634       22.3312743040
H                26.5570962317       13.1032045216       23.9020903933
H                27.3622676587       12.5786145438       22.3978054373
N                25.1860225032        8.3587442064       23.4409985294
C                24.3836717653        7.2675424264       23.9434182935
C                25.1537372818        6.4718209011       25.0015110829
O                24.6318154946        6.1046240701       26.0482641998
C                23.9195187201        6.3590357393       22.8027166086
C                23.2676980295        5.1051933892       23.3695755625
C                22.9115139670        7.0961656498       21.9216538101
H                25.3409397148        8.4267350714       22.4398380048
H                23.5079798690        7.6788305867       24.4675786413
H                24.8037856783        6.0862647788       22.2176753307
H                22.8712020483        4.5185686040       22.5543863869
H                23.9669535907        4.5016634339       23.9458310603
H                22.4561678150        5.3785312918       24.0412744280
H                22.6194391236        6.4628265775       21.0888615215
H                22.0294327735        7.3511931446       22.4987118277
H                23.3492746052        7.9993682003       21.5109428131
N                26.4360868213        6.2230319930       24.7095100882
C                27.1947696762        5.3564624755       25.5741098547
C                27.2344908732        5.9216564912       26.9966491201
O                27.0473332771        5.2291611929       27.9911859609
C                28.6184560639        5.1612458311       25.0431773589
O                28.7737405163        3.7890159121       24.8282111863
H                26.7747180084        6.3408111259       23.7592839267
H                26.7249112533        4.3633584536       25.6344453475
H                28.7371968820        5.7330369574       24.1154811572
H                29.3582431697        5.5164820958       25.7776685132
H                29.5718721276        3.6215034449       24.3147229278
N                27.5783461860        7.2108417658       27.0857739649
C                27.7173691641        7.7928096185       28.4000018731
C                26.3407748450        7.9047323711       29.0655954189
O                26.2241213983        7.7936805800       30.2816529833
C                28.5383855469        9.0791150926       28.3562907317
C                27.8538973213       10.2079018413       27.5902464727
C                28.8973306080       11.2050471302       27.1116756005
O                29.1234069349       12.2680763458       27.6822208158
N                29.5251347366       10.8270230123       25.9874948757
H                27.7556113991        7.7549027171       26.2505446114
H                28.2649213767        7.0679646507       29.0191780761
H                28.7407607666        9.4002779429       29.3783940686
H                29.4940069483        8.8355557744       27.8874241356
H                27.3246124991        9.8111398590       26.7235085875
H                27.1348364030       10.7176245260       28.2307015979
H                29.3166250739        9.9444536161       25.5449504426
H                30.2226096595       11.4362296295       25.5826148412
N                25.2843831897        8.0850554002       28.2758070855
C                23.9684840821        8.0281702829       28.8814690117
C                23.7365110867        6.6637917203       29.5157145939
O                23.2093537014        6.5793950387       30.6185374495
C                22.8509760283        8.4181257800       27.9040946691
C                22.8531862692        9.9444056442       27.7430788203
C                21.5099092924        7.8854716221       28.4004851783
C                21.8366503578       10.4382739021       26.7247268984
H                25.3673634504        8.1846061841       27.2718935433
H                23.9583099767        8.7356867511       29.7231581756
H                23.0813278065        7.9453127476       26.9429914880
H                22.6504190473       10.4041289683       28.7112699222
H                23.8524429952       10.2453268973       27.4224243940
H                20.6984343070        8.2025137426       27.7551358804
H                21.5089448832        6.7979080435       28.4155939900
H                21.3114813285        8.2352829202       29.4100892791
H                21.9586315522       11.5054841876       26.5670215804
H                21.9901512166        9.9299963038       25.7754377598
H                20.8208351902       10.2564143368       27.0630272443
N                24.1508782561        5.5945298958       28.8485059246
C                23.9625969355        4.2800370826       29.4235608011
C                24.7963728276        4.1403979225       30.6997191208
O                24.3641561344        3.5838997071       31.7065379848
C                24.3278903987        3.1869318045       28.4296428174
C                23.1564848560        2.8976328152       27.4203395405
O                22.0001609321        2.9847065229       27.8718103566
O                23.4895289213        2.5529043661       26.2719110058
H                24.4865433189        5.6618661287       27.8967801259
H                22.9052897647        4.1510157154       29.7036311425
H                25.2297457487        3.4444968310       27.8732711547
H                24.5065277887        2.2521834995       28.9673919570
N                26.0225532025        4.6550344978       30.6377061400
C                26.9228384323        4.5598578658       31.7628582108
C                26.2547076172        5.1440936037       33.0188763279
O                26.3240958665        4.5807839290       34.1030224547
C                28.2236127052        5.2896610681       31.4587383496
H                26.3772886955        4.9977549371       29.7521387284
H                27.1178185263        3.5013887748       31.9872622669
H                28.9122657511        5.1746380014       32.2896607300
H                28.6719999376        4.8681729199       30.5621580901
H                28.0223707849        6.3460318933       31.2973154399
N                25.6538538065        6.3294891812       32.8646261593
C                25.0876155462        6.9747899180       34.0277228486
C                23.7649634101        6.3121466409       34.4096012138
O                23.4462511387        6.1428872801       35.5842457521
C                24.9706220818        8.5062113300       33.9083133125
C                26.3489626321        9.1223821033       33.6626638207
C                23.9842477002        8.9320103852       32.8296629202
H                25.6394313809        6.7943482293       31.9660380789
H                25.7690722436        6.7589495714       34.8631649775
H                24.5963142879        8.8497492964       34.8784428626
H                26.2900550643       10.2055855452       33.7189464577
H                27.0594459898        8.7845471972       34.4114137498
H                26.7182304282        8.8429612400       32.6793175294
H                23.8916427991       10.0147323994       32.8310592311
H                24.3314106472        8.6091524802       31.8517467174
H                23.0050837790        8.4980360058       33.0133822699
N                23.0143256180        5.9077428888       33.3893292084
C                21.7681985066        5.2193904260       33.6254558723
C                21.9495278320        3.9394148799       34.4351485408
O                21.0930934899        3.5449303083       35.2147706491
H                23.2817640030        6.0882781732       32.4283286231
H                21.0701555783        5.8593505515       34.1770596290
H                21.3207379465        4.9744341845       32.6618294185
N                23.0948520158        3.2837795380       34.2156949096
C                23.3877435732        2.0676036790       34.9295014778
C                23.8914872730        2.3905846804       36.3365561152
O                23.5004099106        1.7334394755       37.2984142489
C                24.3566105226        1.1491960060       34.1745517571
O                25.6814462474        1.5972021189       34.3414346633
H                23.7158555315        3.5604224274       33.4641241791
H                22.4492995980        1.5134881963       35.0695408335
H                24.2322451327        0.1352370484       34.5856209000
H                24.0786434120        1.1596647357       33.1111025900
H                26.2865773473        0.9903473710       33.9006091032
N                24.6952101979        3.4452406538       36.4605693369
C                25.1098580608        3.8399724531       37.7968794406
C                23.8823319157        4.1672414135       38.6603389856
O                23.8149710528        3.7677571625       39.8186343278
C                26.0792393308        5.0157745907       37.7602888233
C                27.4921716294        4.5438653836       37.4286424534
C                28.4503091629        5.7305869705       37.3296139358
C                29.9136816054        5.3058763626       37.3830886841
N                30.3250945566        5.0198804550       38.7881126966
H                25.1660837663        3.8450173669       35.6540703735
H                25.5829469994        2.9768306708       38.2870318698
H                25.7197715125        5.7366848203       37.0254863589
H                26.0663261941        5.4971364832       38.7398048279
H                27.8019810159        3.8444437698       38.2068145470
H                27.4758495290        4.0061656686       36.4796220884
H                28.2711633983        6.2388199860       36.3833951034
H                28.2362062939        6.4459379402       38.1255113538
H                30.0589798849        4.4092474072       36.7798564032
H                30.5492470193        6.1036909711       36.9997136304
H                31.2956332716        4.6779983212       38.8259754815
H                30.2515383337        5.8780886596       39.3530368907
H                29.7019374372        4.3091319623       39.1974510742
N                22.9204742074        4.8949426603       38.0907805993
C                21.7110267176        5.1900365779       38.8373871829
C                21.0516116152        3.8924368137       39.2942728471
O                20.6035575173        3.7748323402       40.4319971238
C                20.6983484860        5.9967326620       38.0253835961
C                21.1337284035        7.4316488831       37.7037174559
C                20.0165640788        8.1173112548       36.9215014618
C                21.4503004035        8.2232555095       38.9676829907
H                23.0270870816        5.2789937342       37.1564459781
H                21.9639295034        5.7305898044       39.7574127920
H                20.4913612577        5.4566019874       37.0980588727
H                19.7759099931        6.0329377490       38.6109692826
H                22.0286591616        7.3919895476       37.0746826360
H                20.3270995842        9.1073730451       36.5983363276
H                19.7451406006        7.5347835006       36.0440696518
H                19.1322825386        8.2211563350       37.5465018032
H                21.5228766691        9.2833997044       38.7384281590
H                20.6676123298        8.0849536951       39.7118747270
H                22.3945780986        7.9088796863       39.4035298363
N                20.9940277341        2.8944635870       38.4055293286
C                20.4080155252        1.6305749238       38.8030133902
C                21.1666356976        1.0207409970       39.9856025234
O                20.5708643153        0.4261264295       40.8813254253
C                20.4001315773        0.6003434447       37.6788584614
C                19.4487214660        0.9370862740       36.5324829376
C                19.2425374261       -0.3366059470       35.7115666823
C                18.6347074320       -0.0952004826       34.3351216745
N                18.6015025696       -1.3963438897       33.6114906529
H                21.2562610641        3.0259934388       37.4375965304
H                19.3831201148        1.8011535616       39.1640472039
H                21.4202716305        0.4806432709       37.3097158231
H                20.0790473918       -0.3395674391       38.1322793401
H                18.4979069003        1.2846139637       36.9379081238
H                19.8644034980        1.7372568501       35.9209320574
H                20.2160328622       -0.8166729283       35.5836055120
H                18.6032291776       -1.0046525774       36.2899505072
H                17.6223487902        0.2984048104       34.4226381611
H                19.2474515799        0.6120738325       33.7763005807
H                18.2888436341       -1.2776233760       32.6369210951
H                19.5447411723       -1.8195156400       33.6208895797
H                17.9572631211       -2.0441544117       34.0879138023
N                22.5002236030        1.0973027112       39.9510473303
C                23.2758908974        0.6004591111       41.0725568186
C                22.8656318387        1.3079320514       42.3710697055
O                22.6748911615        0.6731906207       43.4009382307
C                24.7751831382        0.8012827242       40.8658593662
C                25.4521353411       -0.2903376166       40.0414060511
S                26.0225580998       -1.7204782440       41.0410274840
C                24.5292654442       -2.7365051238       41.1390433600
H                22.9706151206        1.5360889156       39.1658391834
H                23.0335587642       -0.4573304457       41.2244857405
H                24.9024267866        1.7731492794       40.3854304774
H                25.2570156443        0.8439503788       41.8436863270
H                24.8177245392       -0.6568236966       39.2364298106
H                26.3756556934        0.0919033945       39.6114209729
H                24.8545719172       -3.7475969858       41.3630711307
H                23.8712204507       -2.3760285973       41.9249383175
H                24.0530731114       -2.7153647021       40.1651050112
O                29.7829237293       13.3951810755       25.0343172789
H                29.5843956520       13.3994209688       25.9807481648
H                28.9455933254       13.3811430938       24.5639266736
O                20.0322765698        8.9311446293       32.3932543518
H                20.9669078885        8.9225215714       32.1687556166
H                19.6660162168        9.7475993498       32.0411693320
O                18.7063936919        6.6725363501       31.4914545101
H                18.8081990693        6.7906094116       30.5421523878
H                19.1530994529        7.4288875070       31.9039310291
O                18.9726054486        6.0711544380       25.0343172789
H                19.0755413426        6.2409648497       25.9807481648
H                19.3791134018        6.8033228300       24.5639266736
O                26.7762640085       12.8828880905       32.3932543518
H                26.3164161364       13.6966140845       32.1687556166
H                26.2523236560       12.1574699601       32.0411693320
O                29.3952175945       12.8639439753       31.4914545101
H                29.2420606349       12.8930734876       30.5421523878
H                28.5168453979       12.8726269340       31.9039310291
N                17.0122211216        9.8080193949       22.7671559005
C                17.9701188170       10.4026083707       23.6804835848
C                17.3842953461       11.6694647373       24.2974723300
O                17.3697585890       11.8395072633       25.5134629582
C                19.3036040434       10.6482134435       22.9669052140
C                20.1349065446       11.7197234102       23.6634770688
C                20.0745468540        9.3327728676       22.8965953072
H                17.2821634210        9.6625152328       21.7961837933
H                18.1259966494        9.7154443295       24.5234744943
H                19.0716200129       10.9919861750       21.9535889004
H                21.1218519613       11.7754740647       23.2138498613
H                19.6622441965       12.6950976181       23.5820973273
H                20.2464946744       11.4902740520       24.7193685716
H                20.9906159151        9.4807879203       22.3312743040
H                20.3326600844        9.0107912761       23.9020903933
H                19.4757661236        8.5757873548       22.3978054373
N                14.7190992725       11.0725442500       27.0857739649
C                15.1535867281       10.6611628929       28.4000018731
C                15.9388118346       11.7973671676       29.0655954189
O                15.9009648857       11.9539179115       30.2816529833
C                15.8570517542        9.3069891114       28.3562907317
C                17.1768538669        9.3353799290       27.5902464727
C                17.5186903749        7.9331675511       27.1116756005
O                18.3262625172        7.2058651011       27.6822208158
N                16.8774098214        7.5784852861       25.9874948757
H                15.1016372709       10.6469975966       26.2505446114
H                14.2520764658       10.5493912508       29.0191780761
H                16.0339993315        8.9711456049       29.3783940686
H                15.1683124967        8.6011763605       27.8874241356
H                17.0978903220        9.9921350220       26.7235085875
H                17.9778171199        9.7032436088       28.2307015979
H                16.2173371349        8.2003446490       25.5449504426
H                17.0562607665        6.6698509758       25.5826148412
N                16.6231719863       12.6220676629       28.2758070855
C                17.2318575835       13.7901122775       28.8814690117
C                16.1662575856       14.6731960659       29.5157145939
O                16.3567466080       15.1719260941       30.6185374495
C                18.1283229772       14.5629248925       27.9040946691
C                19.4490149925       13.7978708356       27.7430788203
C                18.3375643130       15.9906498329       28.4004851783
C                20.3849854056       14.4312826298       26.7247268984
H                16.6678953638       12.5004292572       27.2718935433
H                17.8496718712       13.4451650772       29.7231581756
H                17.6036789908       14.5998409170       26.9429914880
H                19.9485306807       13.7436107388       28.7112699222
H                19.2099920791       12.7820284995       27.4224243940
H                19.0178683361       16.5348867246       27.7551358804
H                17.3961888303       16.5352668251       28.4155939900
H                18.7397237657       15.9875878414       29.4100892791
H                21.2482260269       13.7920386740       26.5670215804
H                19.8680536639       14.5524857858       25.7754377598
H                20.7353979859       15.4019341532       27.0630272443
N                14.9180717342       13.1798798324       32.8646261593
C                15.7600376956       13.3476061819       34.0277228486
C                15.8474978520       14.8243781707       34.4096012138
O                15.8602710814       15.1850207746       35.5842457521
C                17.1447842745       12.6832147882       33.9083133125
C                16.9892335421       11.1814514699       33.6626638207
C                18.0067242640       13.3245405327       32.8296629202
H                15.3278626919       12.9599404952       31.9660380789
H                15.2323861236       12.8653675437       34.8631649775
H                17.6294507775       12.8356058634       34.8784428626
H                17.9567690241       10.6908651992       33.7189464577
H                16.3414182522       10.7350722862       34.4114137498
H                16.5626140781       11.0013666093       32.6793175294
H                18.9906914841       12.8633777225       32.8310592311
H                17.5535396429       13.1853175538       31.8517467174
H                18.1204733874       14.3895085526       33.0133822699
N                24.8829454648       17.8543904612       28.2758070855
C                25.5901589753       16.7432309639       28.8814690117
C                26.8877319686       17.2245257381       29.5157145939
O                27.2244003315       16.8101923915       30.6185374495
C                25.8112016353       15.5804628518       27.9040946691
C                24.4882993792       14.8192370445       27.7430788203
C                26.9430270354       14.6853920693       28.4004851783
C                24.5688648774       13.6919569924       26.7247268984
H                24.7552418267       17.8764780830       27.2718935433
H                24.9825187929       16.3806616960       29.7231581756
H                26.1054938436       16.0163598597       26.9429914880
H                24.1915509128       14.4137738172       28.7112699222
H                23.7280655666       15.5341581275       27.4224243940
H                27.0741979978       13.8241130572       27.7551358804
H                27.8853669274       15.2283386557       28.4155939900
H                26.7392955467       14.3386427626       29.4100892791
H                23.5836430618       13.2639906627       26.5670215804
H                24.9322957604       14.0790314347       25.7754377598
H                25.2342674647       12.9031650343       27.0630272443
N                24.1508782561       -5.5945298958       33.4574938313
C                23.9625969355       -4.2800370826       32.8824389548
C                24.7963728276       -4.1403979225       31.6062806350
O                24.3641561344       -3.5838997071       30.5994617711
C                24.3278903987       -3.1869318045       33.8763569384
C                23.1564848560       -2.8976328152       34.8856602154
O                22.0001609321       -2.9847065229       34.4341893993
O                23.4895289213       -2.5529043661       36.0340887501
H                24.4865433189       -5.6618661287       34.4092196299
H                22.9052897647       -4.1510157154       32.6023686134
H                25.2297457487       -3.4444968310       34.4327286012
H                24.5065277887       -2.2521834995       33.3386077989
N                23.0948520158       -3.2837795380       28.0903048462
C                23.3877435732       -2.0676036790       27.3764982781
C                23.8914872730       -2.3905846804       25.9694436406
O                23.5004099106       -1.7334394755       25.0075855070
C                24.3566105226       -1.1491960060       28.1314479987
O                25.6814462474       -1.5972021189       27.9645650926
H                23.7158555315       -3.5604224274       28.8418755768
H                22.4492995980       -1.5134881963       27.2364589224
H                24.2322451327       -0.1352370484       27.7203788558
H                24.0786434120       -1.1596647357       29.1948971659
H                26.2865773473       -0.9903473710       28.4053906526
N                20.9940277341       -2.8944635870       23.9004704273
C                20.4080155252       -1.6305749238       23.5029863657
C                21.1666356976       -1.0207409970       22.3203972324
O                20.5708643153       -0.4261264295       21.4246743305
C                20.4001315773       -0.6003434447       24.6271412945
C                19.4487214660       -0.9370862740       25.7735168183
C                19.2425374261        0.3366059470       26.5944330736
C                18.6347074320        0.0952004826       27.9708780814
N                18.6015025696        1.3963438897       28.6945091030
H                21.2562610641       -3.0259934388       24.8684032255
H                19.3831201148       -1.8011535616       23.1419525520
H                21.4202716305       -0.4806432709       24.9962839328
H                20.0790473918        0.3395674391       24.1737204157
H                18.4979069003       -1.2846139637       25.3680916320
H                19.8644034980       -1.7372568501       26.3850676985
H                20.2160328622        0.8166729283       26.7223942438
H                18.6032291776        1.0046525774       26.0160492486
H                17.6223487902       -0.2984048104       27.8833615947
H                19.2474515799       -0.6120738325       28.5296991752
H                18.2888436341        1.2776233760       29.6690786607
H                19.5447411723        1.8195156400       28.6851101761
H                17.9572631211        2.0441544117       28.2180859535
N                22.5002236030       -1.0973027112       22.3549524255
C                23.2758908974       -0.6004591111       21.2334429373
C                22.8656318387       -1.3079320514       19.9349300503
O                22.6748911615       -0.6731906207       18.9050615251
C                24.7751831382       -0.8012827242       21.4401403896
C                25.4521353411        0.2903376166       22.2645937048
S                26.0225580998        1.7204782440       21.2649722719
C                24.5292654442        2.7365051238       21.1669563959
H                22.9706151206       -1.5360889156       23.1401605724
H                23.0335587642        0.4573304457       21.0815140154
H                24.9024267866       -1.7731492794       21.9205692785
H                25.2570156443       -0.8439503788       20.4623134288
H                24.8177245392        0.6568236966       23.0695699453
H                26.3756556934       -0.0919033945       22.6945787830
H                24.8545719172        3.7475969858       20.9429286251
H                23.8712204507        2.3760285973       20.3810614384
H                24.0530731114        2.7153647021       22.1408947447
H                25.8261440155        8.1728572635       18.8568739963
H                22.7504042291        2.3011815627       42.3844116056
H                16.7831268361        8.9894987237       23.0630270199
H                17.0020212516       12.3817026204       23.7087587201
H                13.8340356991       10.9311897471       27.0040342827
H                15.3084550324       14.8473708975       29.0321467002
H                14.3389761109       12.5059350452       33.0076180576
H                15.8959914862       15.5233147814       33.6960635612
H                24.0466666152       17.8940956220       28.6060512163
H                27.4674730741       17.8803171248       29.0321467002
H                23.3670685591       -6.0368418985       33.4590594556
H                25.7255868867       -4.5084695238       31.5733484522
H                22.2827946672       -3.2194094981       28.4729526745
H                24.5408431413       -3.1382125118       25.8301971610
H                20.4144929174       -3.5613988220       23.7291905726
H                22.7504042291       -2.3011815627       19.9215881503
