 456 
 
N                10.8624308769       34.3662241613        4.5960298271
C                12.0249170394       35.2154715233        4.3200934465
C                11.5923242839       36.6868650711        4.3752904896
O                12.2740123022       37.5328973739        4.9761002287
C                12.6429843344       34.8773559955        2.9396815004
C                13.4303119870       33.5806599781        3.1201640357
C                13.5230216836       36.0341240938        2.4715741845
C                14.0244484378       33.0299725466        1.8116757452
H                10.6029775196       33.6677230212        3.9088546290
H                12.7755051691       35.0835073030        5.1077702813
H                11.8272677578       34.7253400193        2.2262935982
H                14.2440667807       33.7417003257        3.8279504172
H                12.7593478601       32.8228339020        3.5251218480
H                13.9992763184       35.7982339698        1.5254483844
H                12.9517244897       36.9490140731        2.3206978495
H                14.3019399503       36.2417788837        3.2019219353
H                14.5511099124       32.1015509836        2.0089683881
H                13.2313429461       32.8440132469        1.0933908520
H                14.7332057951       33.7272379024        1.3771735415
N                10.4205025747       36.9704047482        3.7986429150
C                 9.9780940456       38.3630889225        3.7477318089
C                 9.7779849532       38.9216646407        5.1284840337
O                 9.9416569541       40.1298860089        5.2923694643
C                 8.6309497525       38.5323520627        3.0324365179
O                 8.7906786706       38.4660091335        1.6518569449
H                 9.9611448522       36.2795888777        3.2125422654
H                10.7195544284       38.9795028379        3.2256294547
H                 7.9322289006       37.7737505379        3.4017844459
H                 8.2661788362       39.5394407586        3.2436665437
H                 8.8796501997       37.5364249853        1.4009731599
N                 9.3582162100       38.1210354923        6.1098422082
C                 9.1363902202       38.7035898388        7.4351737485
C                10.4184129432       39.3040085612        8.0053346792
O                10.4185664376       40.3768464096        8.6034786332
C                 8.6304130472       37.6694245840        8.4192337434
C                 7.2492533081       37.1194121704        8.0851828235
C                 6.1288487198       38.1363190222        8.1087983432
N                 4.9502014714       37.5046770276        7.5889799379
C                 4.0198080372       36.9431031369        8.3517352986
N                 4.1536897900       36.9418848321        9.6838032653
N                 2.9834674000       36.3685382665        7.7473862001
H                 9.1917944419       37.1322008661        5.9766121376
H                 8.4267805045       39.5298021934        7.3267563321
H                 9.3484085226       36.8486169646        8.4505697943
H                 8.5878028441       38.1380063971        9.4038722420
H                 7.2738736200       36.6557277488        7.0982536507
H                 7.0182781132       36.3455313014        8.8168170347
H                 5.9780337014       38.5380844122        9.1091716306
H                 6.3548458839       38.9799004599        7.4517705173
H                 4.8755555793       37.4620369416        6.5768317704
H                 4.8805670783       37.4658675665       10.1590986853
H                 3.3238753870       36.7265385827       10.2150948053
H                 2.8390051557       36.4878011015        6.7481084245
H                 2.1912550762       36.1334884053        8.3341229339
N                11.5320803595       38.5896094186        7.8568072692
C                12.8280791808       39.0358918149        8.3456351846
C                13.3783921927       40.1725012854        7.4609477766
O                13.9601610716       41.1674153946        7.8910238079
C                13.8393213388       37.8643646782        8.3753910217
C                13.6013244811       36.9438341795        9.5354083895
C                12.6509427260       35.9201919428        9.4433500146
C                14.2551320075       37.1919679255       10.7326615981
C                12.3353197360       35.1659177297       10.5683501171
C                13.9507382780       36.4187815377       11.8598608416
C                12.9811883796       35.4215667278       11.7790816332
H                11.5179921064       37.7633491399        7.2716577197
H                12.6828513860       39.4500500659        9.3508999100
H                13.7636933352       37.3411113350        7.4190623210
H                14.8422672976       38.2924982422        8.4295253385
H                12.1538910289       35.7356424803        8.5037665111
H                14.9972429689       37.9723713618       10.7890486845
H                11.5950633757       34.3871265028       10.4977841313
H                14.4766585631       36.6044271234       12.7808689458
H                12.7311405968       34.8457025082       12.6550524193
N                13.1794011662       40.0038397188        6.1576950454
C                13.7348722914       40.9867675362        5.1976638768
C                13.0168446689       42.3320348804        5.3850268608
O                13.6058049008       43.4140640428        5.4396392966
C                13.4922276162       40.3891641321        3.8034422229
C                14.3001785200       41.0059188492        2.6867086847
C                14.1181139583       40.1755888994        1.3401477363
O                13.0444196147       39.5518521081        1.1774699104
O                15.0542616422       40.2227169332        0.5306360701
H                12.8046766971       39.1470079222        5.7674182783
H                14.8022084223       41.1358111553        5.3933726697
H                13.7353655595       39.3245970194        3.8539287832
H                12.4298940786       40.4751578262        3.5643687037
H                13.9745233355       42.0266617562        2.4765530889
H                15.3668558497       41.0159394128        2.9050715316
N                11.6793977681       42.2882423453        5.5384460216
C                10.9625942749       43.5525292713        5.6416890958
C                11.2662422518       44.2995845429        6.9093225267
O                11.1364495354       45.5250926643        7.0139513461
C                 9.4870032772       43.2069489650        5.6143534916
C                 9.0542625900       42.8992642406        4.1661876868
O                 9.7985767582       43.0528825316        3.2068085638
N                 7.8266496348       42.4101362233        4.0623202268
H                11.1579430265       41.4321825142        5.3875853261
H                11.2126783246       44.1885643470        4.7816780085
H                 9.2903440612       42.3282218990        6.2249720635
H                 8.8812096413       44.0381340551        5.9790816935
H                 7.4650948249       42.1626192951        3.1557583433
H                 7.2818237138       42.1750667281        4.8844733130
N                11.6568184233       43.4997179232        7.9298464119
C                11.9219653354       44.0683325350        9.2666439454
C                13.1879182149       44.9448925075        9.2459019565
O                13.3570078587       45.8260706384       10.0886128588
C                12.0638592662       42.9503971205       10.2957948361
C                12.0942232289       43.4863481048       11.7640780109
C                10.6877060366       43.7931425770       12.2914144538
N                10.7767265667       44.4211307237       13.5990463358
C                10.4383110954       43.9430694204       14.7970644778
N                 9.7744512555       42.8064527463       14.9443551230
N                10.7847694933       44.6183911385       15.8981742920
H                11.6557996464       42.4973398889        7.8323407603
H                11.0806408363       44.7209982946        9.5179771309
H                11.2268117245       42.2612927624       10.1782144134
H                12.9890926428       42.4101974552       10.0898839940
H                12.5636616996       42.7361697628       12.3958838007
H                12.6992315673       44.3916265186       11.7882502045
H                10.1806334375       44.4843885319       11.6137464088
H                10.0931636119       42.8817184923       12.3487922993
H                11.2675303882       45.3130918759       13.5936197910
H                 9.2197328672       42.4473414543       14.1822301656
H                 9.5026974109       42.5674883290       15.8948568688
H                11.2604900306       45.5005800406       15.8249873704
H                10.4095386682       44.3029561077       16.7920468152
N                14.0768011581       44.5958828338        8.3147157276
C                15.3794065239       45.2496388841        8.1823079422
C                16.5869387535       44.4338590025        8.6024278923
O                17.7117381328       44.9292496059        8.6398355462
H                13.8243843868       43.9197560729        7.6088415673
H                15.5378593172       45.5684480436        7.1489625921
H                15.3476173263       46.1479761542        8.8068298972
N                16.3700764856       43.1441690203        8.8770180728
C                17.5112785262       42.2867039811        9.2008513133
C                18.2201829144       41.8815302447        7.9390429406
O                17.6692502540       41.9157084247        6.8366821703
C                17.0360713622       41.0111868773        9.9385354125
C                16.5724150502       41.3319704828       11.3331740580
C                17.4243535448       41.9438524403       12.2159053379
C                15.2780118820       41.0368998100       11.7563541842
C                17.0367749505       42.2607200554       13.5196805082
C                14.8931552387       41.3365109731       13.0592696443
C                15.7543667702       41.9676107198       13.9322918378
H                15.4946115899       42.6965574256        8.6401648365
H                18.1884017584       42.8648283673        9.8357101844
H                16.2379444649       40.5491280258        9.3559079922
H                17.8816874568       40.3216510440        9.9917644370
H                18.4322570649       42.1628800048       11.8992463709
H                14.5849974732       40.5579403234       11.0820297709
H                17.7299655749       42.7371998373       14.1954567502
H                13.8992743003       41.0710540919       13.3834752382
H                15.4425179402       42.1943726661       14.9395986062
N                20.5812829473       35.2717242743        9.9259163449
C                20.1698780602       36.7092566983        9.8070068280
C                20.9685458261       37.5093245253       10.8369236384
O                21.2647723009       37.0247333213       11.9277508302
C                18.6450458461       36.8299250863       10.1045630669
C                17.8477291171       36.2375829038        8.9824890049
C                17.3681243951       34.9528523565        8.8369135951
C                17.3406782121       36.9645628759        7.8530266908
N                16.6545036316       34.8236772073        7.6629755545
C                16.6013364488       36.0431322148        7.0767007837
C                17.4072555681       38.3140937714        7.4428907719
C                15.9426298153       36.4132661647        5.9211385093
C                16.7919335467       38.6464546372        6.2610199839
C                16.0521311745       37.7107856832        5.5234681801
H                20.5186170501       34.8459391909       10.8432974598
H                20.3943712803       37.0394326412        8.7922884018
H                18.4335382653       36.3148259063       11.0420542498
H                18.3943056227       37.8859702617       10.2087404817
H                17.5502573247       34.1030337304        9.4644580690
H                16.2455960089       33.9785829797        7.2914549384
H                17.9686435623       39.0446254582        8.0018908496
H                15.3807059566       35.6879677756        5.3496398462
H                16.8435040151       39.6678478835        5.9115041036
H                15.5701666763       38.0428110520        4.6132643454
N                14.4669382917       39.1463130144       18.8963379540
C                13.4405849495       39.6740628148       18.0135400578
C                13.0611262743       38.6250437214       16.9652425943
O                11.8939662925       38.5132380510       16.5693419854
C                13.8822554329       41.0122580157       17.4016817251
O                13.9477177572       41.9656692690       18.4623922736
C                12.8978655039       41.5034634734       16.3504074244
H                15.3754855276       39.5912667283       18.8987732863
H                12.5375469515       39.8537765709       18.6143961777
H                14.8846227599       40.8835809557       16.9668749480
H                14.6369934174       41.7606981903       19.1235552060
H                13.1855030394       42.5019771821       16.0393578851
H                12.9030615918       40.8297711836       15.5011884620
H                11.8984981676       41.5358903323       16.7735258067
N                 9.3696801669       37.3388602326       16.0762564828
C                 8.7841214501       37.2292726655       14.7053320488
C                 8.2562643837       35.8119821772       14.4523088887
O                 7.1912994859       35.6039072693       13.8446718339
C                 9.8239688327       37.6654678068       13.6841201727
C                10.0155295268       39.2067991087       13.7409032322
C                 9.5095762389       37.2197395433       12.2596421610
C                11.2605356387       39.5857099999       12.9371438532
H                10.3532445719       37.5577648903       16.1875325716
H                 7.9065688422       37.8855051622       14.6560948423
H                10.7684914878       37.1963749701       13.9814468338
H                 9.1326448491       39.6907368267       13.3253580045
H                10.1482877041       39.5062092029       14.7795927895
H                10.3705463607       37.3748030833       11.6180233268
H                 9.2559478896       36.1658096122       12.2284934726
H                 8.6705386960       37.7841081074       11.8589192924
H                11.5052613807       40.6319575508       13.1015317677
H                12.1083626153       38.9775347848       13.2392211407
H                11.0987207339       39.4510762195       11.8722741702
N                18.1271226164       52.1566958118        8.5708206837
C                17.5840877766       51.2303022476        9.5667375407
C                18.2067995217       51.4923294538       10.9344011873
O                17.5088318507       51.2847118025       11.9442081514
C                17.8696700257       49.8000696559        9.1377506769
C                17.4987795038       48.8068115163       10.2333677321
C                17.1582799615       49.5525006468        7.8124151283
H                19.0328904723       51.9346659051        8.1847689422
H                16.5106891722       51.4116719903        9.6522677057
H                18.9557096443       49.7328552188        8.9873080784
H                17.6392221516       47.7926927190        9.8671603753
H                18.1208702446       48.9478851609       11.1128952507
H                16.4608397401       48.9343245133       10.5325647343
H                17.2519103696       48.5102076755        7.5195943348
H                16.0993820056       49.7730269289        7.9182601347
H                17.5748875721       50.1951751559        7.0424628932
O                19.6277302443       44.6554391102       10.7000160552
H                20.5314997828       44.5428612878       10.3457961446
H                19.0601197206       44.9241011483        9.9649296925
O                 8.1437994659       41.7866997851        8.8686661720
H                 9.0046402655       41.3400259019        8.7762306951
H                 8.3360680028       42.7400578504        8.9802882865
O                17.4339552561       41.3870963735        1.3204402210
H                17.7743264562       41.5262560750        0.4289269064
H                17.3576841608       42.2962364789        1.6667774942
O                16.4168898126       43.6535227946        5.0684870729
H                16.5499614436       44.6113052406        5.2444267356
H                15.4728426502       43.4988727681        5.1835023541
O                15.5421325614       44.0350182828       16.9888253575
H                16.4672469757       43.7730087350       16.8844569671
H                15.2438034929       44.2606830043       16.1031912984
O                10.5809973697       40.8165535113        1.2753039425
H                11.4697987861       40.4277169025        1.2031144378
H                10.6216510982       41.5067239952        1.9504399035
O                12.1848267117       43.9108788495        1.9566743397
H                12.2232022409       43.3747576227        1.1539382743
H                11.2986783619       43.7721137361        2.3198582930
O                19.6090141856       45.3328393236        6.4960232086
H                19.6138599383       44.7150222281        5.7417368155
H                18.8899863443       45.0785377329        7.0881498412
O                18.7977398148       40.9630144488        3.7673760448
H                18.2540335698       41.4843372505        4.3697733007
H                18.3254817177       40.9517056655        2.9193478638
O                16.7635401007       46.3470993440        5.2939174415
H                17.4517384755       46.3946219410        4.6242205379
H                16.0934746476       46.9936838545        5.0116464144
O                11.4232765141       42.3804616923       19.6034154606
H                11.4051320280       43.1313297122       20.2206869543
H                12.3052986394       42.3508939772       19.1907330361
O                 9.5003294678       42.9399098716       17.7433435144
H                 8.7104066205       43.2438846699       18.2084540169
H                10.1341555143       42.6571343376       18.4296665129
O                13.6213498666       46.3092926112        4.7597589652
H                12.7567245065       46.5036636166        4.3719920388
H                13.6335783640       45.3635998895        4.9421970002
O                 6.9968022784       40.6786729539       11.1770098056
H                 6.2716530142       41.2914668162       11.3319926283
H                 7.4039909624       40.9746530223       10.3434529623
O                17.3227005437       43.9174984840        2.5010652395
H                17.0168761485       43.7479551597        3.4166273078
H                16.8377916013       44.6901659606        2.1909224679
O                15.0826726452       45.9967922504        2.1919836813
H                14.4981038775       45.2343718753        2.1741392263
H                14.9979640527       46.3482108859        3.0954263482
N                15.7351218138       44.1610595920       -1.1212104812
C                14.8226961673       43.4809775946       -0.2345138105
C                13.7926048268       42.6137508950       -0.9788313849
O                12.6652713970       42.4834911476       -0.4900014616
H                16.7046756951       43.8770314553       -1.1100732280
H                15.3764422103       42.8186098251        0.4330555110
H                14.2509026881       44.2142408177        0.3369448300
N                14.2122925025       39.2992978894       -2.0588637361
C                14.3678807610       37.8314382168       -2.0763519099
C                13.0477899800       37.0530307579       -1.8811962995
O                12.6289957167       36.1545710200       -2.6283938204
C                15.4160570205       37.3899472203       -1.0086328360
C                16.7712491078       38.0591105569       -1.4054410463
C                15.5037040039       35.8553842326       -0.9008107832
C                17.8404283061       37.8676597171       -0.2847416698
H                14.5222754044       39.8339619788       -1.2449021205
H                14.7351270146       37.5575097016       -3.0703204590
H                15.1075593142       37.8022793419       -0.0448854749
H                17.1268987392       37.6216780984       -2.3390310067
H                16.5986435396       39.1240050689       -1.5361007734
H                16.2107149312       35.5748289788       -0.1273693142
H                14.5317600566       35.4417539292       -0.6465398003
H                15.8126727058       35.4256032244       -1.8522038701
H                18.7866702203       38.2966056385       -0.5972296721
H                17.5051438985       38.3828365391        0.6113728899
H                17.9894218245       36.8165668893       -0.0646272373
N                12.3666609027       37.4766368721       -0.8253844901
C                11.0977023940       36.8603131579       -0.4380557011
C                10.0838504246       36.8860177868       -1.5687304806
O                 9.4809284761       35.8824585433       -1.9794287849
H                12.7355271943       38.2041287107       -0.2086555557
H                11.2601629539       35.8166922683       -0.1421109959
H                10.7102429111       37.4121484874        0.4159432503
N                10.9051852958       49.8711728129       18.4525221689
C                10.4820725388       48.6763354651       17.7317227175
C                10.8370970015       47.3668311167       18.4496825274
O                10.1863868166       46.3334495468       18.2154666192
C                11.2146578973       48.7402803407       16.3829482404
C                11.3838766407       50.2343979828       16.1696959577
C                11.7025383235       50.7322970690       17.6010093020
H                 9.3953737382       48.6991805589       17.5893286315
H                12.1945578829       48.2702100975       16.4760248434
H                10.6639059696       48.2323077563       15.5942437008
H                12.1915841575       50.4730792104       15.4834801324
H                10.4562261812       50.6823115642       15.8190133743
H                12.7656325605       50.6000552708       17.8205491871
H                11.4014748172       51.7731851600       17.7300168018
N                11.9093824699       47.3933361014       19.2387398780
C                12.2667227532       46.1670880406       19.9926127882
C                11.1328757631       45.6964318534       20.9422130403
O                11.0380363096       44.5191907414       21.2594569767
C                13.5218754992       46.4514586379       20.8223188855
C                13.9618738958       45.2709846157       21.6910891759
C                14.6853500040       44.2705138773       20.8074149397
C                14.8543249591       45.7308510626       22.8732430001
H                12.3950231733       48.2522757499       19.4761121974
H                12.4401697011       45.3611290432       19.2747782027
H                14.3317580187       46.7268337298       20.1460062980
H                13.3072402636       47.3123433001       21.4603738048
H                13.0924316374       44.7813162115       22.1332284932
H                14.9874479085       43.4130159359       21.4011748919
H                14.0549499681       43.9359482033       19.9912306020
H                15.5816281243       44.7201711914       20.3845392369
H                15.1570673246       44.8690697300       23.4595522919
H                15.7458801081       46.2329398872       22.5053996487
H                14.3064195635       46.4100152571       23.5203327549
N                 7.8936787774       46.2866621300       20.1725501873
C                 6.6880951929       46.2396621698       19.3598580753
C                 6.3436420997       44.8025325207       18.9443147622
O                 7.1398764496       43.8700004719       18.9843005855
C                 6.8323397956       47.1497058965       18.1263315228
O                 7.6765247382       46.5170468128       17.1929626446
H                 8.7792247513       46.2384312622       19.6820251223
H                 5.8719989510       46.5977890142       19.9963675085
H                 5.8644157298       47.2592503006       17.6361213086
H                 7.2128156455       48.1316560226       18.4315100323
H                 8.5801408660       46.4118563169       17.5554155104
N                 4.9231863093       42.0820039608       16.1939114479
C                 4.6843837011       41.7675896213       14.7892246075
C                 3.2164707752       41.9990399605       14.4513544875
O                 2.3555263922       41.6977142856       15.2913355478
C                 5.0186794518       40.2801449404       14.6738561372
C                 6.1739950072       40.1816990335       15.6932987763
C                 5.6523062990       41.0029445992       16.8800879603
H                 5.3290214732       42.3715079637       14.1409428132
H                 4.1740156642       39.6706623429       14.9899115379
H                 5.3105711039       40.0126461262       13.6640507381
H                 6.3912475494       39.1554762243       15.9824507009
H                 7.0640921935       40.6451640559       15.2727380955
H                 4.9756293397       40.4105683994       17.4966540645
H                 6.4523531309       41.4189884680       17.4893136959
N                 6.6017967927       46.7210359034       14.2937306091
C                 6.8807880524       45.3194936267       14.5258004717
C                 7.0960108718       44.5275895454       13.2272142054
O                 7.5878591900       43.4086507942       13.1886655009
H                 5.6653215395       47.0506041030       14.4915886981
H                 7.7803269767       45.2250457607       15.1384471669
H                 6.0440379458       44.8783972910       15.0662436386
N                 6.6409770721       45.1197317928       12.1182001044
C                 6.8669179834       44.5363451218       10.8115931856
C                 8.0415007052       45.1292166459       10.0486070207
O                 8.6240887056       44.4441246686        9.1913296698
C                 5.6154273755       44.7302058438        9.9515483908
C                 4.4476845432       43.8555035664       10.3951551762
O                 4.6584415638       42.8660505446       11.1300077778
O                 3.3435970043       44.1737541819        9.9203544625
H                 6.0074870912       45.9090688371       12.1647114857
H                 7.0456460185       43.4635050247       10.9528045424
H                 5.2944062619       45.7727028658        9.9820255665
H                 5.8324036412       44.4777467411        8.9103367244
N                 8.3641894009       46.3954422930       10.3276121566
C                 9.2526192780       47.1340917172        9.4409101597
C                10.4614573740       47.8056387744       10.1194382151
O                11.3149924145       48.3132174665        9.3971301193
C                 8.4434052528       48.2550812569        8.7249914050
C                 7.4262126406       47.6926235802        7.7817586719
C                 7.7522806113       46.7137473499        6.8359138874
C                 6.1132190578       48.1155157415        7.8526627876
C                 6.7460688311       46.1957807625        6.0389342997
C                 5.1235298571       47.6276992460        7.0293293105
C                 5.4435272511       46.6502032498        6.1097754843
H                 7.7026570552       46.9448900531       10.8682608004
H                 9.6538197353       46.4375405557        8.7000185680
H                 7.9426543893       48.8556733450        9.4838891799
H                 9.1547402813       48.8738676292        8.1737229418
H                 8.7647728372       46.3562937486        6.7325126480
H                 5.8603297524       48.8572484983        8.5964170199
H                 6.9931092426       45.4418610294        5.3014971062
H                 4.1106563009       47.9910675339        7.1061634412
H                 4.6909704924       46.2301700894        5.4622802082
N                10.5920778821       47.8475311700       11.4479428363
C                11.6478698235       48.6458154206       12.0391047823
C                12.3668419705       47.9159220364       13.1817900038
O                11.8989871262       46.9544191752       13.7931054352
C                11.0517183470       49.9561973167       12.6431521185
H                 9.9197129958       47.4357102094       12.0896400838
H                12.3595468998       48.8748792369       11.2446993375
H                11.8602728330       50.5737182761       13.0184706760
H                10.5229550233       50.4908238234       11.8594062387
H                10.3657280617       49.6892365543       13.4398448946
N                13.5557046962       48.4750088851       13.4627746255
C                14.4414759167       47.8495205476       14.4831370768
C                14.8726109170       48.8185662466       15.5613005825
O                14.8154061520       48.4961805707       16.7494517069
C                15.6727701542       47.1624816858       13.8660351270
C                15.1841004028       45.9970614303       12.9772470078
C                16.6165654731       46.7117458996       14.9923588125
C                16.3135463998       45.4128395082       12.1042444664
H                13.9623470785       49.1889217264       12.8659488039
H                13.8274238656       47.0825368145       14.9668776142
H                16.1998021390       47.8862154019       13.2342593725
H                14.7702409981       45.2068450492       13.6046014780
H                14.3988543877       46.3541289854       12.3115007379
H                17.3781693708       46.0462933960       14.5988428746
H                17.1219351760       47.5745305471       15.4228721319
H                16.0634466696       46.2177759671       15.7852043443
H                15.9138931852       44.6099586195       11.4908703227
H                16.7136408143       46.1848981956       11.4532122224
H                17.1243136076       45.0177732054       12.7064176119
H                11.0022759612       33.9027634138        5.3547441923
H                19.1701678846       41.5715194344        7.9767504207
H                20.0636669328       34.7658644949        9.3909588278
H                21.2591447226       38.4432030391       10.6285412911
H                14.1841724503       39.1960778448       19.7493132999
H                13.7609871118       38.0173303533       16.5899037204
H                 8.9474654036       37.9899584623       16.5321136853
H                 8.7723543520       35.0203935940       14.7794765208
H                17.5686416729       52.2018468856        7.8665051179
H                19.1489689608       51.8209561241       11.0001374760
H                10.1859407224       50.3774417757       18.6432549162
H                10.4731052258       46.3576107549       21.2993478865
H                 7.9143578556       47.0584938185       20.6349874482
H                 5.4242753004       44.5832229166       18.6177141102
H                 5.5330394233       42.7410746371       16.2547803490
H                 2.9624995483       42.3874129513       13.5655412815
H                 7.1438009951       47.2241881551       14.8066333836
H                15.2067529398       49.7275431366       15.3120815583
H                15.4672554195       44.0473398697       -1.9728650001
H                14.0415923267       42.1696452462       -1.8395144843
H                14.6722207626       39.6583430920       -2.7441027733
H                 9.8690743127       37.7478416128       -2.0282203223
