 170 
 
N                19.7357484017       19.0386788020       18.0432012677
C                18.7755857046       18.8051047888       19.1299172800
C                19.4151280862       17.9632334464       20.2526466300
O                18.7231845692       17.3304535551       21.0555224692
C                17.5088438259       18.1023315978       18.6038919255
C                16.6708421808       18.9495383781       17.6950913433
C                16.0434269394       20.0845977091       18.1957437329
C                16.5858646941       18.6873312314       16.3313819816
C                15.2935643069       20.9296187199       17.3997486949
C                15.7024250198       19.4343934846       15.5593693382
C                15.0554894957       20.5531387604       16.0788146933
O                14.2582688708       21.3629994117       15.3462332576
H                19.8368721781       18.3035305778       17.3544608130
H                18.5295820264       19.7841027077       19.5556632755
H                17.8206474017       17.1944287462       18.0814641317
H                16.9297891071       17.8075140251       19.4817231774
H                16.1781600821       20.3351233090       19.2376391497
H                17.1299068959       17.8620317310       15.8999760858
H                14.8637717135       21.8278472126       17.8072535469
H                15.5941499740       19.1852258334       14.5144622914
H                14.0860994480       20.9850685565       14.4696702152
N                17.9482776963       17.7731896756       23.6557567860
C                16.6935440114       17.0209696457       23.7747259302
C                16.8660638783       15.5219212680       23.5418787788
O                15.8893728025       14.7767087517       23.4038870019
C                15.6721166983       17.5393467533       22.7755084143
C                15.4196631287       19.0500973830       22.8822991836
C                14.4105109740       19.4543773623       21.8054041870
C                14.9261068866       19.4380266369       24.2753921102
H                18.3575593544       17.7864942083       22.7282283902
H                16.3586209990       17.1563159194       24.8092338726
H                16.0499099918       17.3119013111       21.7760174255
H                14.7436549591       16.9859735233       22.9224574552
H                16.3632126854       19.5671728425       22.6868545426
H                14.3201362932       20.5363548056       21.7621966601
H                14.7331755963       19.1029384921       20.8292695619
H                13.4360298401       19.0283027767       22.0252206111
H                14.6593424419       20.4907654021       24.2820958088
H                14.0557655389       18.8445206696       24.5400324183
H                15.7062071244       19.2777032130       25.0152227544
N                10.1788007061       12.0826642099       22.5627333995
C                 9.8780798859       12.5103754723       21.2215893590
C                11.1292338181       12.6886820053       20.3340746017
O                10.9818865441       13.1517195486       19.2049310062
C                 9.0827405021       13.8161534925       21.2641571594
C                 9.7727733712       14.9760311697       21.9052785894
C                10.7189823428       15.7135197655       21.1997709309
C                 9.4536710865       15.3689407701       23.1991843124
C                11.3047177376       16.8289526200       21.7592498849
C                10.0654095577       16.4811621500       23.7646554434
C                10.9894202284       17.2119790472       23.0542703235
H                10.3086083632       12.8055404568       23.2561076688
H                 9.2706765422       11.7390635022       20.7357895484
H                 8.8454636697       14.0754729632       20.2294325967
H                 8.1410300028       13.6180120735       21.7813815089
H                10.9677346052       15.4268138118       20.1894205773
H                 8.7019746909       14.8274381748       23.7549051109
H                12.0231233845       17.3943462944       21.1842617385
H                 9.7894581965       16.7807720496       24.7640031671
H                11.4424931657       18.0934294892       23.4813323154
N                12.3314117260       12.4327960159       20.8354237616
C                13.5227036586       12.8024780669       20.0884732760
C                13.6201081316       12.0535633178       18.7684972231
O                13.9088285290       12.6680499932       17.7392447503
C                14.7704106792       12.5235913443       20.9194507295
C                16.0655584473       12.8111189094       20.2062464012
C                16.4828122600       14.1261323458       20.0033802686
C                16.9275259664       11.7919885889       19.8501715448
C                17.7809197355       14.3707354033       19.6011811838
C                18.1616252650       12.0424386133       19.2884390533
C                18.6163704409       13.3537185874       19.2078009476
H                12.4789362684       12.0271622999       21.7552130091
H                13.4599375385       13.8684210281       19.8308270265
H                14.7369511596       13.1385011584       21.8230873897
H                14.7559710301       11.4753873374       21.2197372051
H                15.8379410129       14.9476946553       20.2784119786
H                16.6202179577       10.7684665708       20.0039508675
H                18.1328446380       15.3918431282       19.5613324315
H                18.8060674184       11.2316070855       18.9873317654
H                19.6188628214       13.5596528323       18.8657226964
N                11.3812881110       10.7097764670       16.9192150495
C                10.3901812295       11.1672774792       15.9671456511
C                10.6462446563       12.5729516780       15.4533154754
O                10.3362418330       12.9297344442       14.3064537138
H                11.0963364654       10.5446856081       17.8835746232
H                10.3588102654       10.4989030914       15.0988700734
H                 9.4135954221       11.1519879597       16.4542102873
N                11.2389898766       13.4047764072       16.3057679436
C                11.5303776845       14.7655948361       15.9054573123
C                12.6259487892       14.7014323209       14.8303166937
O                12.5879480346       15.3702545495       13.8002765605
C                11.9903658484       15.5563987860       17.1554107239
C                12.7840508589       16.8511731120       16.8982892028
C                11.9692440304       17.9119100159       16.1736875431
C                13.2452775030       17.4308180848       18.2183100666
H                11.3389314165       13.1443510162       17.2816051909
H                10.6469992978       15.2215293764       15.4438444212
H                11.1050839551       15.7839463133       17.7500544306
H                12.6264444985       14.8847048616       17.7345086796
H                13.6600408332       16.6052116340       16.2879560849
H                12.5359586457       18.8363684022       16.1020554576
H                11.7199369155       17.5893843716       15.1656553443
H                11.0447902363       18.1185529917       16.7086138881
H                13.8429284194       18.3235525592       18.0518066707
H                12.3857648475       17.7039981119       18.8263188056
H                13.8500074690       16.7159118168       18.7739983042
N                13.6343304231       13.8789791643       15.0958635294
C                14.7357261208       13.7677429876       14.1654909383
C                14.2083929881       13.2246142047       12.8353191404
O                14.5722387277       13.6507402318       11.7477334715
C                15.8451293851       12.8880737602       14.7415948062
C                16.8651861067       12.4599543810       13.6626131664
C                16.5243341367       13.6312203184       15.8857111527
H                13.6701624350       13.3843385425       15.9815775636
H                15.1356373486       14.7674329085       13.9471727581
H                15.3781567210       11.9863177979       15.1482325681
H                17.6832639891       11.9194431435       14.1291260647
H                16.4027597648       11.8251271560       12.9132560576
H                17.2761061946       13.3344791401       13.1624084204
H                17.2770236505       12.9998314366       16.3504945117
H                17.0165813287       14.5339739361       15.5286499440
H                15.8066772724       13.9012082425       16.6548182990
N                11.2116200277       13.4423327957       11.5337040072
C                10.4793341710       14.5079352038       10.8546028160
C                11.4466215859       15.5191580315       10.2383547330
O                11.2433530192       15.9719005687        9.1159639470
C                 9.4941337858       15.2590614043       11.7914051800
C                 9.3159870516       16.7582664921       11.6579913159
C                 8.6284432511       17.3632604154       10.5671143359
C                 9.6980765978       17.5960067648       12.6943714608
C                 8.3862583467       18.7162423973       10.5386918505
C                 9.4374363340       18.9467092761       12.6866752806
C                 8.7575671364       19.5534298126       11.6244121287
O                 8.4788468096       20.8974079001       11.7716286856
H                11.1358362006       13.3451274360       12.5393352637
H                 9.9304777540       14.0519498900       10.0222034629
H                 8.5152758421       14.7914229665       11.6660394117
H                 9.8292560842       15.0626336066       12.8119272335
H                 8.3164140657       16.7530119878        9.7331983828
H                10.2139322180       17.1724247736       13.5429488084
H                 7.8754938033       19.1605146813        9.6940145932
H                 9.7240295473       19.5618487762       13.5217562263
H                 8.1937479800       21.2913721292       10.9133193490
N                12.5165515379       15.8487588607       10.9594933602
C                13.4487186342       16.8638117504       10.4282024882
C                14.2469571581       16.3302100877        9.2286506721
O                14.7715863607       17.1240385324        8.4541410286
C                14.3799172664       17.3719959667       11.5219138978
C                13.6099858785       18.2161204063       12.4809761462
S                13.1593846767       19.8814124236       11.7673060885
C                14.7898136074       20.7184614394       11.8131104111
H                12.6377070825       15.5417164537       11.9220868382
H                12.8549587836       17.7012581189       10.0360157767
H                14.8117452856       16.5094269464       12.0368172857
H                15.1945808017       17.9250185228       11.0504740395
H                12.6567592389       17.7610711562       12.7394805969
H                14.1661872764       18.4017033368       13.3961156265
H                14.6120781958       21.7664286151       11.6048465211
H                15.2599259522       20.5998886862       12.7817725335
H                15.4304359116       20.2980210884       11.0439281304
H                19.4936268649       19.7718686830       17.5808055931
H                20.4103105623       17.9218575070       20.3415278480
H                17.8066995313       18.6318481821       23.8852370516
H                17.7828538216       15.1249203356       23.4984453865
H                 9.5075478897       11.5690036152       22.8718813412
H                13.4504077121       11.0685149593       18.7388071731
H                11.7204957410        9.9225776779       16.6448863230
H                13.5338356836       12.4864200176       12.8288550143
H                10.9453106133       12.6441145007       11.2144441610
H                14.3349184827       15.3444652155        9.0852287343
