 460 
 
N                34.3525350099       24.4673494644       83.6244426294
C                34.5390206579       25.1073214599       82.3150092227
C                33.6056909069       26.3210337743       82.1183515005
O                32.9607017916       26.8436410999       83.0582643359
C                34.2279617213       24.0104299379       81.3891655045
C                34.9239216825       24.0960414016       80.0449395081
C                32.7112431057       23.8103619530       81.3516923021
C                36.4123304619       24.3564211108       80.2288851448
H                33.6711606316       23.7743305276       83.6718360265
H                35.5679408497       25.4939873872       82.3130317661
H                34.6808473370       23.1137012100       81.8426023875
H                34.7996926719       23.1112683004       79.5430744718
H                34.4682537542       24.8120788691       79.3453176304
H                32.2822100555       24.1538576030       80.4182750866
H                32.5042359640       22.7241762851       81.4480889085
H                32.2115553550       24.3031268427       82.1629185973
H                36.9214173004       24.1863965208       79.2184362682
H                36.6146492810       25.3782275090       80.4689722814
H                36.8424016961       23.6735425756       80.9053373198
N                33.5460082923       26.7984349686       80.9155566969
C                32.3940630867       27.6050315973       80.5035429722
C                31.5717035529       26.7984879429       79.4955611050
O                31.9434987339       25.7235638366       79.0874715992
H                33.9557828467       26.2806590579       80.1647827997
H                31.8094174953       27.8523086760       81.3806697930
H                32.7367306114       28.5476801425       80.0232312841
N                30.4532813094       27.3858028662       79.0736348481
C                29.7675797071       26.8909326535       77.8789927683
C                29.3393137811       28.1441898956       77.0926891871
O                29.1433973495       29.2059362224       77.7125454992
C                28.6095605652       25.9293227131       78.2621316583
O                28.5344767103       24.8976921821       77.2757215271
H                30.1932572609       28.3265214171       79.3565363069
H                30.4861621617       26.3048074228       77.3105402798
H                28.8365294035       25.5269956551       79.2595536204
H                27.6630897441       26.4771575885       78.3208990571
H                28.0242950658       24.1835918658       77.6408766828
N                29.2603230447       28.0605921023       75.7878190121
C                29.0447985334       29.2055547215       74.9621976101
C                28.8210446133       30.5192244693       75.6434838308
O                29.7317113203       31.2647315132       75.8231478920
C                27.9361922431       28.7322857631       73.9426727912
C                27.7274593776       27.2494718782       74.2602186779
C                29.0242131145       26.8718665123       75.0068911456
H                29.9859576161       29.3558675891       74.3962294221
H                27.0302021689       29.3102843665       73.9855258886
H                28.3244005624       28.8410814304       72.9108147788
H                26.8826353249       27.1190960414       74.9307352658
H                27.5638522326       26.6394030343       73.3787881866
H                28.9164109826       25.9763896449       75.6036725778
H                29.8487342064       26.7387791571       74.2971273012
N                27.5209857998       30.7725962914       75.9358224396
C                26.9485036381       32.0003897868       76.5302670070
C                26.6267839705       32.9643989824       75.3466100982
O                27.2655244369       33.9437733251       75.0576073553
C                27.8027928400       32.6446789065       77.6895278980
O                28.9153939364       33.4076016921       77.2870623855
H                26.8666161993       30.0166845096       75.8522103151
H                26.0035250551       31.7121536202       76.9989591519
H                27.1461608660       33.3116590333       78.2342713543
H                28.1337125424       31.8312147146       78.3222757184
H                29.4766086287       32.8061668896       76.7484858090
N                25.5638025270       32.5460188469       74.6137621443
C                25.1068485615       33.4703747950       73.5829583069
C                24.7590711074       34.7888616185       74.2660792660
O                24.2136942463       34.7961430009       75.2294140337
C                23.9627706335       32.8857191028       72.7345975430
C                24.4888576070       31.7974184817       71.7658925219
C                22.8368156012       32.3571746137       73.6082584009
H                24.8927307834       31.9226896662       74.9915703447
H                25.9781187721       33.6347950816       72.9080856344
H                23.5808514622       33.7057757023       72.1295549860
H                23.6825812718       31.3854701515       71.1949448276
H                25.2390298609       32.2076758893       71.1003776014
H                24.9588546013       30.9857768966       72.3437591207
H                21.9387529094       32.2103916521       72.9891899072
H                23.0816346363       31.3736662808       74.0241913420
H                22.5957192719       33.0448915643       74.3915965182
N                25.2433168702       35.8772631256       73.6649601465
C                25.4453812123       37.1479978162       74.3204457997
C                24.1106196040       37.6852951136       74.8739670657
O                23.0648963400       37.5767835006       74.2162969037
C                26.0638295611       38.1633912083       73.3408141639
C                27.1335336311       39.1026663312       73.9027732492
C                28.4071769202       38.3811486809       74.3896315262
N                28.4411007225       38.2647499515       75.8598825682
C                28.7010431347       37.1736774445       76.6028681489
N                28.9045862883       35.9933363406       76.0659537261
N                28.7443328667       37.3054967291       77.9460465613
H                25.7256518830       35.7701189229       72.7699447622
H                26.1300504645       36.9727190897       75.1683621094
H                26.5209440667       37.6131700599       72.5240413168
H                25.2574198664       38.7739906309       72.9240110743
H                27.4236207085       39.7656738223       73.0972510148
H                26.7300999929       39.7417451704       74.6968396551
H                28.4767140537       37.3989467400       73.9505047238
H                29.2779784885       38.9613570591       74.1047713325
H                28.3875748732       39.1535604193       76.3373717004
H                28.6856067907       35.8024333608       75.0837200991
H                28.9351746964       35.1534156431       76.6310831055
H                28.7546569251       38.2077529072       78.3726328599
H                29.0052888425       36.5061836204       78.4836331675
N                24.1457868551       38.3270367621       76.0385458991
C                22.9572980335       38.8494338444       76.6590387783
C                22.0354914143       39.5077938009       75.6874398043
O                22.3904773207       40.3085189719       74.9171481586
C                23.4936382005       39.8477133822       77.6715033526
C                24.7020272485       39.0760937356       78.2469086209
C                25.2760025229       38.4166390505       76.9899037120
H                22.4096797997       38.0274886158       77.1949319852
H                23.8346829572       40.7363974005       77.1679260528
H                22.7676269327       40.0896580177       78.4512965476
H                25.4248863191       39.7258616698       78.7263267064
H                24.3533546732       38.3303677650       78.9581193559
H                26.0534153869       39.0396402154       76.5569044954
H                25.6812086987       37.4148144724       77.2204312325
N                17.5277501477       34.1764412170       80.8417907019
C                18.9038266909       34.1117224926       80.3858836602
C                19.7075078954       33.3491902951       81.4479739818
O                19.5954770814       33.5652426775       82.6020079565
C                19.5372878913       35.4981192745       80.2461802603
C                18.6241691363       36.5445981421       79.6148362724
C                19.4705802829       37.7031728496       78.9840105018
O                20.1638314101       37.4398916182       78.0481811330
O                19.3190782462       38.8885801298       79.5386497998
H                17.3299216576       34.6154739100       81.7116578379
H                18.8894011123       33.6044764351       79.4101902321
H                19.8368527185       35.8550318483       81.2355431153
H                20.4421276534       35.4075571819       79.6332110734
H                18.0847153485       36.0822027331       78.7702248170
H                17.9166715365       36.9281832407       80.3281253652
N                20.5518026554       32.4168073594       81.0000979998
C                21.4809525011       31.7826979551       81.9231603587
C                22.4187356678       32.8835937736       82.4755088850
O                22.7870894921       33.7908187703       81.8656779797
C                22.2723002410       30.6993561524       81.1782442257
C                23.2122882623       29.9693404756       82.0329768710
C                23.7473486189       28.6360214942       81.4511140461
N                24.4805027472       28.7990477886       80.2388969748
C                25.7506161609       29.2720221602       80.1171790896
N                26.3626952086       29.8788626408       81.1746252735
N                26.3406032859       29.2576709921       78.9444689570
H                20.7990355697       32.4067032010       79.9940485518
H                20.9132396846       31.3393991730       82.7114683922
H                21.5611249038       30.0001104767       80.7280367551
H                22.8464829776       31.1780629668       80.3425398253
H                24.0434838837       30.6297314655       82.3416005706
H                22.6922000557       29.6984455324       82.9847845075
H                24.3855290755       28.1407080692       82.2094492577
H                22.9138524787       27.9877654402       81.2655718640
H                24.1052552913       28.3472339907       79.4447258684
H                25.9618864604       29.8618760241       82.0820687996
H                27.3210866062       30.1350206341       81.1226053947
H                25.9497626454       28.6961064331       78.2028210476
H                27.3344581837       29.4838977704       78.8599904026
N                22.7820057954       32.7261434848       83.7259428070
C                23.7655588026       33.5651403219       84.3373389912
C                24.9967465816       33.4685350667       83.4582069926
O                25.4414019315       32.3818683356       83.0962270416
C                24.0643733083       33.0766210062       85.7359750006
C                25.1876914429       33.7704741489       86.4699036068
C                25.2209331393       35.1441071610       86.6873160003
C                26.1516397801       32.9842013637       87.1174394842
C                26.2068271381       35.7461590098       87.4455823925
C                27.1051167777       33.5702675816       87.9459618172
C                27.1666062929       34.9517214315       88.1118007392
O                28.1768915974       35.5351913590       88.8605427033
H                22.3890424886       31.9416328441       84.3090305573
H                23.3923470460       34.5827467264       84.3462327391
H                23.1476988759       33.2112228223       86.3525106017
H                24.2733842699       32.0061838459       85.7163045413
H                24.4255270656       35.7669831466       86.3143706193
H                26.1228377428       31.9178579841       87.0415197230
H                26.2320159098       36.8047441374       87.6017073104
H                27.7845194775       32.9266257048       88.4932240631
H                28.5617344340       34.8833235818       89.4127734024
N                25.5897651040       34.5987558336       83.1142914509
C                26.7112034618       34.5276832603       82.1777016906
C                27.7990036158       33.5566513598       82.6595753014
O                28.3897888001       32.8292726949       81.8333262805
C                27.2055762652       35.9861458779       82.0430395806
C                26.4950069662       36.7444379531       83.1738097696
C                25.1812817234       35.9855745825       83.3248037848
H                26.3828533426       34.1343364893       81.2228062658
H                28.3035986372       36.0490989024       82.1231915171
H                26.9281037167       36.3776435169       81.0741949469
H                27.0739012316       36.6800127357       84.0936971595
H                26.3488251122       37.7890305092       82.9213296077
H                24.7488168544       36.1353755448       84.2923275838
H                24.4768610442       36.2641412493       82.5371885095
N                27.6552613263       30.9187867827       84.5761010688
C                27.2843166170       29.6039377860       84.9821482700
C                28.0399038865       28.5480981610       84.2014598665
O                28.1449644766       28.6090534473       83.0220654626
C                25.7428394621       29.5110230480       84.8788491551
C                25.2050494588       28.0803851599       84.8680216851
C                25.4686632254       27.3731865932       86.2046207572
O                25.7103271371       26.1346015246       86.1594399952
O                25.4448399718       28.0780920541       87.3019436504
H                26.9992801618       31.4879477410       84.0465385712
H                27.5635361250       29.4843783917       86.0536301468
H                25.3138700844       30.0032791100       85.7634751907
H                25.4073677375       30.0503053098       84.0016327466
H                24.1240267388       28.1117623583       84.7403718821
H                25.6514634679       27.4880247442       84.0803839992
N                28.5142893117       27.5231212676       84.8949043325
C                29.3972010807       26.5344812764       84.3511100241
C                28.9421436553       25.0438364298       84.3681075106
O                29.5886586812       24.1859439753       83.8659771259
C                30.8030551410       26.5393991013       85.0545442052
O                30.8272506770       25.6799535248       86.1546658146
C                31.2557930371       27.9641586749       85.3414381673
H                28.3877791645       27.5038330232       85.9137545851
H                29.5394396320       26.7933918857       83.3062630211
H                31.4950351261       26.0772603899       84.3364013366
H                31.0003415668       26.2388037107       86.9661181483
H                32.3118542330       27.9333103090       85.6308572986
H                31.1527042170       28.5812106171       84.4796657160
H                30.6826779337       28.4024285562       86.1546988187
N                27.8001050778       24.7638119455       85.0419691876
C                27.2964287138       23.4217868994       85.1342869390
C                26.0481763237       23.2339770078       84.2754192881
O                25.8889615050       22.2448838686       83.5977839171
C                26.9614793687       23.0482892925       86.5818372577
C                26.3792139228       21.6538693246       86.6840928109
C                27.1033463722       20.5466867184       86.2598535451
C                25.1089360511       21.4506480330       87.1884973181
C                26.5553649149       19.2724802979       86.3244678525
C                24.5761561465       20.1767254805       87.3030676220
C                25.2825632511       19.0847880380       86.8545519031
H                27.2540940627       25.4898858006       85.5006939533
H                28.0768857977       22.7593019363       84.7530572910
H                27.8856379963       23.1066085570       87.1729559207
H                26.2577026968       23.7760547711       86.9825973928
H                28.0984638876       20.6748572876       85.8674104717
H                24.5403272167       22.3023758173       87.5630962865
H                27.1118135944       18.4240814859       85.9541631380
H                23.6009914469       20.0466112737       87.7536969436
H                24.8716596430       18.0952001256       86.9376419788
N                25.1524783935       24.2318035067       84.3305373775
C                23.9171307546       24.0998040040       83.5843665981
C                24.1349509442       24.3798598247       82.0940697831
O                24.9190394779       25.2183467756       81.6197372488
C                22.9211552059       25.1324455928       84.1241108933
C                22.4654617597       24.8625598519       85.5469513663
C                22.0803041938       26.1576884633       86.2527930271
C                21.3038729482       23.8786345831       85.5298790908
H                25.3405208650       25.0279980320       84.9028674688
H                23.5513816773       23.0930345244       83.7234243542
H                23.4176514762       26.1132483974       84.0637061512
H                22.0541296980       25.1793700347       83.4478983071
H                23.2954525086       24.4105801109       86.0881486806
H                21.7149575126       25.9708295028       87.2451851391
H                22.9302470120       26.8267925544       86.3105848148
H                21.2883615856       26.6731279440       85.6821167561
H                20.9819975253       23.6552130378       86.5625522304
H                20.4365649800       24.3061954935       85.0122833319
H                21.5737539928       22.9524601551       85.0657815516
N                23.3229403151       23.7091759490       81.3303379461
C                23.1957754022       24.1221345248       79.8576641990
C                22.4150981082       25.4305376616       79.7317137359
O                21.9117418207       26.0087072543       80.6547304549
C                22.3997021652       22.9569008993       79.1498246076
C                21.5218012798       22.4577217731       80.3271504485
C                22.4016015798       22.6538905304       81.6926814876
H                24.2219410417       24.2211830004       79.4997551406
H                21.8578667393       23.2772365618       78.3483408758
H                23.1217878800       22.1526268975       78.9035368975
H                20.6523502666       23.0700089090       80.4125275254
H                21.2554731246       21.4078770127       80.2252012050
H                21.7513634350       22.9208159284       82.4654413239
H                22.9474076763       21.7349988231       81.8735980388
N                22.3121308577       25.8831717460       78.5116582824
C                21.5145722714       27.0757042949       78.2371632484
C                20.2250460968       26.6064763702       77.5641588515
O                20.0682161091       25.3833972782       77.2328656153
C                22.3877005736       27.9621014002       77.3550373349
C                23.6079697852       27.0625026766       77.0674450291
C                23.1229598520       25.6141949128       77.3768295970
H                21.2523304279       27.5362191787       79.1672897116
H                21.8475242639       28.1740609505       76.3850476978
H                22.6692789172       28.8725409413       77.7862545658
H                23.9080700010       27.1216794103       75.9528109562
H                24.4559461735       27.2951477989       77.6314604249
H                22.5021966175       25.2216077764       76.5436641204
H                23.9429346121       24.9396052802       77.5458132486
N                19.2792529850       27.5679537557       77.4305830063
C                17.9354231472       27.2251939063       76.9245016889
C                17.8036586200       27.4575321580       75.4200155796
O                18.4424221614       28.2806139134       74.7864504496
C                16.8520457232       28.0310081455       77.6229154124
C                16.5344025238       27.5372037351       79.0403710942
C                15.8607826320       28.6989814854       79.7924014138
C                15.6027441383       26.3403497973       79.0032430801
H                19.5230566594       28.5135068322       77.4382840391
H                17.8016728733       26.1463328160       77.1268111214
H                17.1949855275       29.0719125398       77.6506240471
H                15.9416642358       28.0184880530       77.0265530288
H                17.4544138443       27.2558519547       79.5421599659
H                15.6445721093       28.3967205120       80.8259213178
H                16.5269082435       29.5537900965       79.8398321478
H                14.9469604871       28.9954365376       79.3137340175
H                15.4198068507       25.9487146077       80.0030754568
H                14.6358696632       26.6287746478       78.5747801832
H                16.0125154062       25.5406374379       78.3988197468
N                15.2764790905       21.4337595870       80.1587458739
C                16.6562586902       21.0146185112       80.3428327070
C                16.7336516320       19.4753452176       80.6003475594
O                15.8060772718       18.7703961570       80.8299621282
C                17.2767501163       21.8027488657       81.4424178744
C                17.2348922808       23.2960040988       81.1824386066
S                18.2021005003       24.2313401870       82.4834461079
C                17.0792716952       25.5441492126       82.9094091856
H                14.6735605847       21.2488567364       80.9393336722
H                17.1599197774       21.2205740354       79.3777149066
H                16.7203935046       21.5913241426       82.3804018470
H                18.3136676273       21.4930531829       81.6061247838
H                17.6831824294       23.5303295048       80.2236122943
H                16.2189990325       23.6749053524       81.2301320478
H                17.4430933328       25.9869982828       83.8247470946
H                17.0930107820       26.2939469634       82.1115973565
H                16.0895275785       25.1320690793       83.0317609240
N                17.9899356390       18.9753674981       80.4769398209
C                18.1838810145       17.6002437115       80.0661354493
C                18.5002752844       16.7205709429       81.2480380141
O                19.6082849766       16.7306699905       81.7825110590
C                19.2575312236       17.5280043996       78.9557853666
C                20.6393843560       17.9888936343       79.4043444078
C                19.3247224975       16.1049619861       78.3989788054
H                18.7451578427       19.6121602358       80.2538285963
H                17.2304515265       17.2613761006       79.6378414399
H                18.9107113241       18.1988324479       78.1581220673
H                21.3014231512       18.0385137705       78.5448327867
H                20.6173307608       18.9675171105       79.8746864957
H                21.0566887970       17.2799319920       80.1264868335
H                20.0330859055       16.0745284601       77.5676453892
H                19.6713697122       15.4192166613       79.1618389116
H                18.3593121878       15.7819745540       78.0332410249
N                17.3002019997       35.5557996357       85.4078382025
C                18.5059433704       34.7732112330       85.1576356692
C                18.3349950157       33.4433120182       85.8390510873
O                17.5577253742       33.3891937903       86.7508490301
C                19.7159372239       35.5660934003       85.6617929742
O                19.6609211893       36.8768565586       85.1113652367
C                21.0268130822       34.8556941738       85.2969278985
H                17.0767136511       35.7691945233       86.3508827349
H                18.6085008958       34.6365089775       84.0685266640
H                19.6590876357       35.7095773120       86.7380782406
H                19.7566908515       36.8194477363       84.1531646401
H                21.8425023726       35.4803356728       85.7100710293
H                21.0668476396       33.9065030987       85.7854840715
H                21.1176313516       34.7685858443       84.2336946077
N                19.0716218522       32.4148532147       85.3367874746
C                19.1130444133       31.2191338174       86.0969830166
C                20.5428462635       30.7704651946       86.3294341903
O                21.3719338509       30.8928941258       85.4807346706
C                18.2295910762       30.1592956276       85.5064345892
C                18.7018698260       29.6412219117       84.2272367726
C                18.4697141047       30.3675261000       83.0998075914
C                19.3817235086       28.4062233054       84.1125819700
C                18.8620560051       29.9156345942       81.8708871864
C                19.7784134539       27.9469355044       82.8866487811
C                19.4940777501       28.6939736475       81.7639308060
O                19.8003595431       28.1406770633       80.5257693329
H                19.6295319477       32.5361891723       84.5414113165
H                18.6936362204       31.4623053891       87.1261498340
H                18.1766504626       29.3094925959       86.2659428802
H                17.2278175766       30.5517071332       85.4293352016
H                17.9415186081       31.3199485872       83.1707167451
H                19.5709659927       27.8310612596       85.0062298513
H                18.6153221760       30.4908686812       80.9611899932
H                20.2857342946       27.0016705783       82.7617083842
H                19.3564805535       28.7145464741       79.8440772705
N                31.8316221387       20.3742318562       78.6091503051
C                30.6029949056       20.0077989587       77.9105003499
C                30.8514564479       19.0712081580       76.6996415978
O                31.7557383574       19.1821102162       75.9489327304
C                30.0226173365       21.3515353397       77.3899943139
C                30.6042622578       22.3702743644       78.3531365785
C                31.9803907371       21.8188011992       78.6471757761
H                29.9264703551       19.5217715207       78.6112804147
H                30.4044107133       21.5182879267       76.3714444818
H                28.9513990485       21.3173046292       77.3191187136
H                30.6419624319       23.3703034397       77.9373940467
H                30.0115722168       22.3828557616       79.2653993526
H                32.6812795287       22.1444529447       77.8254029330
H                32.3998048158       22.1399326623       79.5742112507
N                31.2290525351       20.9294461862       72.9527008420
C                32.0822752727       22.1234277549       72.8805001595
C                33.0743563533       21.8880935978       71.7171872184
O                33.5892112076       20.7856041391       71.5608418120
C                32.8870381852       22.2849360927       74.1888883434
C                33.3432597660       23.7157139757       74.4264520719
C                32.1440641445       24.6508747536       74.6547641819
C                34.2585727800       23.7304914935       75.6650719535
H                31.6603079448       20.0696337236       73.0677945872
H                31.4589952217       22.9768970984       72.6798313089
H                32.2467778742       21.9595346956       74.9963720148
H                33.7469220758       21.6207114421       74.1415787946
H                33.9024396847       24.0684678819       73.5426978992
H                32.4872549571       25.6053963366       75.0419790183
H                31.6252012999       24.8335581699       73.7115757649
H                31.4507851822       24.2048118618       75.3462953789
H                34.6477728109       24.7646231240       75.7941107023
H                33.7331423425       23.4476671625       76.5218088864
H                35.1214380419       23.0916000260       75.4875319860
N                36.6661192183       26.5207672923       70.4730110231
C                36.1604886569       27.1288343787       71.7073992366
C                37.1381386547       26.7662522412       72.8430652406
O                37.5656586948       27.5738531458       73.6294987278
C                34.7653117544       26.6236944650       72.0227539184
C                33.6920178162       27.3273655686       71.1848229278
C                32.3152544181       26.6099996851       71.2391079965
O                32.1504283778       25.3898942871       71.5558876463
N                31.2789760496       27.3463872222       70.9177503124
H                36.0580052407       25.8546580542       70.0123964156
H                36.1809426597       28.2167786112       71.6267611058
H                34.7232505548       25.5435936066       71.8397780987
H                34.5441228538       26.7843646447       73.0779457549
H                33.5552883022       28.3455879353       71.5117808647
H                33.9877196384       27.3207380640       70.1358386370
H                31.3765283058       28.3481009802       70.6827200806
H                30.3556774433       26.9525079785       70.9112654206
N                39.4769639127       29.0039812352       75.3736504384
C                39.3570795537       29.0401065616       76.8313196391
C                40.7564581085       28.7827144950       77.4684270737
O                41.0918961555       29.3385204866       78.4944656626
C                38.3233723518       28.0854112387       77.3963862474
C                36.9970642383       28.2012362993       76.6904789138
C                38.1667017446       28.3578203005       78.8628047674
C                35.9662066088       27.1850920804       77.1668429393
H                38.9596588062       28.3183050338       74.8645177262
H                39.0902801165       30.0668746695       77.1177655004
H                38.7234862422       27.0496356916       77.2383717798
H                36.5952218254       29.2034540879       76.8503590291
H                37.1152655200       28.0619120158       75.6141530084
H                37.6562717039       27.5139280474       79.3730776920
H                39.1347590196       28.4717579406       79.3634936064
H                37.5886584710       29.2454507212       79.0367852405
H                35.0682019333       27.2182777992       76.5662346618
H                36.3778246450       26.1672301133       77.1061705341
H                35.6849065329       27.3603262583       78.2056930625
H                35.1217102775       24.0760163339       83.8798399447
H                21.0648122849       39.2676151124       75.6776303491
H                17.0335298544       34.6301438916       80.2418738870
H                28.0316779721       33.5085812202       83.6309413012
H                27.8401858418       31.4166483549       85.3026936496
H                17.1571704440       26.9137964913       74.8848477901
H                15.2489486415       22.3216560785       80.0142401827
H                17.8009465662       16.1084498031       81.6171546001
H                17.3682432002       36.3526947782       84.9951294349
H                20.8033343444       30.3644389581       87.2053843343
H                31.7850308450       20.0972704304       79.4642068062
H                30.2235980587       18.3150194224       76.5153254584
H                30.6661716324       21.0042101982       73.6509668600
H                33.2969994376       22.6353245403       71.0910275139
H                36.8279889647       27.1646246527       69.8653549652
H                37.4477170953       25.8218519976       72.9538324246
H                39.2082750572       29.7914185259       75.0305049705
H                41.3960649155       28.1502449204       77.0315227711
