 513 
 
N                59.0659202482       66.1588354291      223.4758194811
C                59.3088674663       64.7753103290      223.1481661433
C                60.8069167325       64.5959578072      222.9419404556
O                61.3778250558       63.6105638734      223.4184552290
C                58.4381710708       64.2887759478      222.0141503046
C                58.2749381563       62.8499317900      221.8892489514
C                57.3356071183       62.1942057832      222.8691461000
O                56.3488687885       62.7956358388      223.2040504612
N                57.6360999381       60.8975073567      223.3468035893
H                58.5236849374       66.5801601951      222.8471774227
H                59.0723916401       64.1932097863      223.9266295516
H                57.5391884240       64.6875661880      222.1203870814
H                58.8404558828       64.6447260821      221.1620231335
H                57.9489113605       62.6111318321      220.9658148945
H                59.1808314625       62.3970745197      221.9898900221
H                58.3795079475       60.4959324156      223.0337133659
H                57.1156888420       60.5093201993      223.9208868386
N                61.5046364744       65.5628881562      222.3465292893
C                62.9389346784       65.4587161573      222.1350244354
C                63.7115046316       65.5827940172      223.4623974455
O                64.6694021830       64.8576199391      223.7304429962
C                63.4385463629       66.4737667128      221.1360471009
H                61.1375311836       66.3373260371      222.0436384959
H                63.1140266491       64.5439415052      221.7766162153
H                64.4080953459       66.3972855794      221.0396161853
H                62.9916621940       66.3221479707      220.2669373179
H                63.2021049291       67.3827896150      221.4667545687
N                63.3466278768       66.5279243831      224.2613344468
C                63.8846482213       66.6742383673      225.5936230461
C                63.8302787545       65.3184931066      226.3900971410
O                64.7278000790       64.9924150167      227.1968998960
C                63.1990522136       67.7630892148      226.3878894754
C                63.7211178005       68.1243901867      227.7217027145
C                62.6769465802       68.8977570724      228.5847778856
C                62.2859346123       70.2114882870      227.9695725482
N                61.3528563634       70.8589184118      228.8212790779
H                62.7078522788       67.1692568090      224.0713545983
H                64.8509307820       66.9085939397      225.5199118323
H                63.1884138160       68.5921844378      225.8305122637
H                62.2333160260       67.4828206671      226.5137591245
H                63.9809540370       67.3013936877      228.2200563278
H                64.5219171274       68.7054533565      227.6312611341
H                61.8757859132       68.3327459297      228.6824327904
H                63.0675634909       69.0719854247      229.4843611856
H                63.0904043802       70.7766184077      227.8381768503
H                61.8542463724       70.0505477247      227.0907611054
H                61.0975678982       71.6932795577      228.4784604462
H                60.6086746510       70.3766837485      228.9756248344
H                61.7481870152       71.0542773328      229.6600831163
N                62.7762069299       64.5540227374      226.2022072416
C                62.6380231898       63.3095632193      226.8624143994
C                63.6644233429       62.3418521185      226.3674971911
O                64.3600792110       61.7029711751      227.1022690480
C                61.2493708839       62.7717121759      226.7292763059
C                61.0798442561       61.3341453868      226.9491399400
C                60.9022663921       60.8010733517      228.0980278360
C                61.1170992656       60.4684857067      225.9236015773
C                60.7039161736       59.4165832239      228.2641104092
C                60.9289139816       59.1173936388      226.0861259947
C                60.7381777446       58.5847138607      227.3047868532
H                62.0746409665       64.7819652941      225.6490275081
H                62.7915667162       63.4382221913      227.8557693556
H                60.6424720220       63.2542085143      227.3254876035
H                60.9655941661       62.9650348205      225.7682869571
H                60.9422357927       61.3703885500      228.9265970486
H                61.2473612655       60.8092777398      224.9924120076
H                60.5615750852       59.0653550126      229.2064202076
H                60.9284470653       58.5211879388      225.2833478342
H                60.6362283410       57.6351375804      227.4147937036
N                63.8360752876       62.2461557916      225.0821959227
C                64.7731927603       61.2765396848      224.5228694734
C                66.1649494115       61.6271007430      224.9378525791
O                66.8123292591       60.8126621522      225.5885491112
C                64.6756081587       61.1159874564      223.0551062622
C                63.4923063200       60.3800717790      222.7562191355
C                62.2901707586       60.8746601822      222.2887620832
C                63.2840377239       58.9837535708      222.9864060218
N                61.3509982351       59.8892427664      222.1638883580
C                61.9077875333       58.7061327021      222.6135156912
C                64.0760137460       57.9446498285      223.4163957418
C                61.3726277599       57.4255545115      222.6757337064
C                63.5105405361       56.6960414647      223.4778335404
C                62.1833519028       56.4435115278      223.1277041417
H                63.3863521894       62.7404940829      224.4392989005
H                64.5159674058       60.3946065899      224.9121758780
H                64.6382430029       62.0159795608      222.6002102952
H                65.4691771879       60.6326379713      222.6880190469
H                62.1293965039       61.8059105443      222.0597305358
H                60.5149283524       59.9853721455      221.8506712208
H                64.9818209679       58.0986809997      223.6759754283
H                60.4564425846       57.2560081062      222.3966203120
H                64.0557316629       55.9473131506      223.8094191003
H                61.8231771288       55.5405904835      223.1967020125
N                66.6509007858       62.8291852512      224.6988191881
C                67.9746567021       63.1636319239      225.1415001378
C                68.1848545246       62.9715700549      226.7209785486
O                69.3182006155       62.6911122159      227.1916074192
C                68.3792411144       64.5409682987      224.7147942757
C                68.4187079914       64.8711224587      223.3029069508
C                69.3124705995       66.1579974521      223.1954020771
C                68.9416308408       63.7268862064      222.6174334813
H                66.1966686645       63.5046061372      224.3057137437
H                68.6130796138       62.5180714625      224.7320162435
H                67.7432799085       65.1805035402      225.1697465139
H                69.2937909991       64.7321880280      225.0991242819
H                67.5371286493       65.0717098190      222.8779069426
H                69.3689047127       66.4181309732      222.2193728356
H                68.8900495763       66.8887338220      223.6873349674
H                70.2007658959       65.9595672811      223.5246034575
H                69.0052123980       63.9159619270      221.6208416110
H                69.8593049291       63.5244151345      222.9345217859
H                68.3634463546       62.9452972867      222.7409367328
N                67.1059241444       63.1110675874      227.4996726258
C                67.1804129050       62.8763077627      228.9128378870
C                67.5759526705       61.4729760796      229.2745203485
O                68.4833779375       61.3007685443      230.1100485419
H                66.2842529108       63.3469306976      227.1939908286
H                67.8497657867       63.5106573043      229.3063527459
H                66.3033541896       63.0746119614      229.3327823894
N                66.9281332172       60.4463964102      228.6443211789
C                67.2494566550       59.0487582390      228.8637151244
C                68.7141090534       58.7514891823      228.4984300133
O                69.3236831231       57.7340807241      229.0090705886
C                66.4303051624       58.1690632013      228.1494878143
C                65.0444889161       58.1724848757      228.4844858400
C                64.1176313859       57.5118582385      227.5322526443
C                64.9916138284       57.5220592728      229.7946691241
H                66.2579144798       60.5891682913      228.0705318090
H                67.1519818043       58.9132114849      229.8598740588
H                66.4855833497       58.4296562840      227.1420086708
H                66.7640052159       57.2389409306      228.1986589434
H                64.6451817882       59.1076698600      228.5477139505
H                63.1857899306       57.5243749874      227.8544420601
H                64.1646747492       57.9808204945      226.6544247724
H                64.4116514983       56.5733327431      227.4067431927
H                64.0355506777       57.4193924341      230.1103424668
H                65.3834874987       56.6182668329      229.7226620507
H                65.4799846266       58.0497808492      230.4630962347
N                69.2814366384       59.5874181951      227.6153262036
C                70.5403500404       59.2996003053      226.9708096584
C                71.6566102881       59.0540396843      227.9223511864
O                72.5807184423       58.2797083988      227.5934697858
H                68.9235808112       60.3866857292      227.3479144759
H                70.4267110921       58.4766017332      226.4147833349
H                70.7893289665       60.0408633086      226.3600754030
N                71.5979875641       59.6915379805      229.1270967028
C                72.7675602493       59.8938372751      229.9589965785
C                73.9847401313       60.6067825875      229.2161997714
O                74.0086702310       60.8382785542      227.9491185736
O                74.9986169836       61.0070650993      229.8520463147
H                70.8610700700       60.0585062082      229.4493512005
H                72.5447681932       60.4424071254      230.7253476190
H                73.1061720447       59.0143915377      230.2494168252
N                55.1928960198       51.9301977919      225.9165017126
C                56.0413137068       50.9556362674      226.5780462026
C                55.4735172506       50.3291338516      227.8419080670
O                56.0689520315       49.4370191580      228.4697687830
C                57.4298560460       51.5222639308      226.8746719481
C                58.0660682372       52.0807080132      225.6869213041
C                58.7285119959       51.2958380463      224.7878096354
C                57.9564549876       53.3431508443      225.3739926872
C                59.2541802595       51.7765929309      223.6522373843
C                58.4829951226       53.8578764479      224.1968130852
C                59.1497341379       53.0943533377      223.3228077255
O                59.7284301062       53.6447243208      222.1642778645
H                55.1915023856       52.7381293065      226.3439966990
H                56.1366560465       50.2047414698      225.9053892170
H                57.3409487734       52.2309341777      227.5529367588
H                58.0073621830       50.7928038693      227.2365220433
H                58.8225769156       50.3350203071      224.9861317297
H                57.4705754917       53.9572991389      225.9551205554
H                59.7372356794       51.1804095786      223.0303455422
H                58.3823867723       54.8267245068      224.0005485621
H                59.5817488953       54.5086507592      222.1667093947
N                63.6077770417       62.4558980483      233.8172689775
C                64.0309613057       61.6688733699      232.6806109867
C                65.4410610232       61.1960985397      232.8386853215
O                65.7398118281       60.1232767079      232.3751537828
C                63.9336678295       62.4528534870      231.3515891003
C                62.6061124534       63.0895619056      230.9902630913
C                61.3987973786       62.4235443707      231.1321356610
C                62.5414357336       64.3287994736      230.4557556405
C                60.1768718890       63.0094054692      230.7729993780
C                61.3765710373       64.9413914843      230.0929693893
C                60.1848057906       64.2943724647      230.2507275752
O                59.0552370975       64.9113796892      229.8855878309
H                63.6234239516       63.3750374202      233.6268663219
H                63.4125112739       60.9055710964      232.6186293486
H                64.6063458980       63.1803428403      231.3896984784
H                64.1659670092       61.8273587663      230.6220214220
H                61.3979408235       61.5219158223      231.5056682676
H                63.3845010399       64.8187084179      230.2978765668
H                59.3514228364       62.5458118848      230.8967390455
H                61.3888045161       65.8381205145      229.7012152565
H                59.2248904225       65.7597312185      229.6761509477
N                66.3100063386       61.9823096559      233.4693498900
C                67.7026672321       61.6428305390      233.6453174118
C                67.7942895796       60.4330520922      234.5018617536
O                67.0092515537       60.3316031240      235.4031342642
C                68.4902213023       62.7915121360      234.1448059564
O                68.4042395552       63.9113601713      233.2361528336
H                66.0951777240       62.7923999948      233.8252416561
H                68.1175413615       61.4016195965      232.7396824038
H                68.1131530576       63.0861278926      235.0249923075
H                69.4401014616       62.5515609174      234.2703323180
H                68.9478872052       64.5527393164      233.4997624443
N                68.6747891895       59.4578170969      234.2456361453
C                68.6285833166       58.2186682323      235.0489384337
C                69.3424715380       58.4041484699      236.4280542115
O                69.0231906720       57.6764617924      237.3685973197
C                69.3057604685       57.2054790289      234.2323222684
C                69.4305861116       57.8337627896      232.9396890164
C                69.5833109358       59.2991263398      233.1907266350
H                67.6919219570       57.9305312167      235.2090827703
H                70.2347470625       57.0083333705      234.6112211980
H                68.8141416605       56.3617542286      234.1924872732
H                70.2461298170       57.4726977578      232.4248090996
H                68.6385969827       57.6298091977      232.3684157465
H                70.5089858940       59.5490929964      233.3917329558
H                69.3000185375       59.8318149193      232.3583110769
N                66.7741864032       58.1147836019      239.1704471471
C                65.8578221702       56.9981469722      239.2462920867
C                66.0122388566       56.2720989190      240.5460321315
O                65.0122199357       56.0063017430      241.2037075850
C                65.9971380448       56.0636432313      238.0870934087
C                65.6422893595       56.6551700581      236.8343266381
C                65.0762233072       57.8197978250      236.6405500235
C                65.8869451218       56.1320082394      235.5016869903
N                64.8948692923       58.0532577585      235.2635388114
C                65.3890655070       57.0775048493      234.5756799640
C                66.4604122270       54.9769897596      235.0035073906
C                65.3626705205       56.8380016900      233.3028876920
C                66.4410843389       54.7734297944      233.8362611029
C                65.8713257904       55.6868034725      232.9580373760
H                67.4459793747       57.9941492526      238.5457936609
H                64.9380514314       57.3680909263      239.2093089380
H                66.9818911562       55.7785228293      238.0353555134
H                65.4655126091       55.2539594051      238.2299172204
H                64.8145709705       58.4453038353      237.3371092964
H                64.4798933195       58.8223665719      234.9426493201
H                66.8543482891       54.3281281727      235.6326374494
H                65.0144044984       57.4636630419      232.6490406536
H                66.8195703699       53.9438671435      233.4651262243
H                65.9082396563       55.4630419697      231.9594116362
N                60.1520018152       54.1550012694      231.0269948060
C                61.4306902534       54.7565107021      230.8225758764
C                62.5347550264       53.7305188999      230.4459832570
O                63.2841578178       53.9195848149      229.4349108000
C                61.8974901416       55.5658771046      231.9737117712
C                60.9065163383       56.6135582177      232.4403043937
C                61.4226350041       57.2059105093      233.7431614758
C                60.8046602912       57.5759928982      231.4343474008
H                59.7119078052       54.4661964844      231.7687814600
H                61.3288231540       55.3484617424      230.0217055282
H                62.0523993033       54.9323730177      232.7551475095
H                62.7476935988       56.0123073519      231.7739963378
H                60.0066476563       56.2458704631      232.6310999535
H                60.7816056046       57.8831082466      234.0742647193
H                61.5145533261       56.4864094557      234.4221161090
H                62.2994027447       57.6239567347      233.5864714263
H                60.2080609726       58.3324753407      231.7227026585
H                61.6968940368       57.9614435138      231.2172746077
H                60.4196272142       57.1815571455      230.6095148882
N                61.9524843870       51.9885218292      226.9787610267
C                62.2040075234       52.9489665028      226.0044894583
C                63.6670123782       53.1915708308      225.8334942450
O                64.1079939212       53.3023428692      224.6551690177
C                61.4774874080       54.2360899859      226.3390007639
H                61.4335249987       52.3397835427      227.7079720998
H                61.8627590495       52.6009959019      225.1396514343
H                61.6367714176       54.9053771032      225.5999321085
H                60.5140196323       54.0775992282      226.4142079981
H                61.8330876868       54.6136719032      227.1761080520
N                64.4357031615       53.3877441678      226.9227635752
C                65.8937651168       53.4456292745      226.8177140992
C                66.4977528520       52.1569727683      226.0983489155
O                67.4026079494       52.2506261354      225.1701764640
C                66.5491520919       53.7411914253      228.0906720813
C                68.0287736532       54.0172190905      228.0828670252
C                68.7854921187       54.6384308932      229.3871007148
N                68.9806376852       53.7949369700      230.6434229234
C                67.9216786909       53.3184634232      231.3900619351
N                66.6317755569       53.3786285497      230.9311573206
N                68.1503555707       52.7788116218      232.5896703781
H                64.1419778639       53.4316999348      227.7543666193
H                66.1195334847       54.1828436850      226.1723025306
H                66.1130357700       54.4775861372      228.5231845072
H                66.4092729198       52.8959342976      228.6886080772
H                68.5364972662       53.1159499439      227.9336252859
H                68.2531758616       54.5972618441      227.3543783371
H                69.6604068389       54.8818420216      229.1297719990
H                68.2142739711       55.3962921762      229.6330916348
H                69.7240588010       53.5882742977      230.9066214085
H                66.4423572772       53.7550661293      230.1392171217
H                65.9377618193       53.1249726268      231.4541479909
H                68.9461091688       52.7141771468      232.8922778875
H                67.4293464748       52.5034417144      233.0927761432
N                65.3627238910       51.7361761306      221.9511470860
C                65.6552619015       52.6911174136      220.9086077951
C                67.0525076632       53.2825645984      221.0649392762
O                67.7401883652       53.1249174755      222.1354229286
C                64.6904982815       53.8579230930      220.7895388274
C                63.2228919183       53.5408465600      220.7636834044
C                62.7964228427       52.9156682600      219.5038907165
O                63.4402127972       53.1811677414      218.4440181858
N                61.6804822294       52.1327055811      219.5762219057
H                65.5398288098       52.0374271874      222.7977701366
H                65.6041305748       52.1355273890      220.0721864768
H                64.8325336180       54.4361025604      221.6032642433
H                64.8906425737       54.3689229599      219.9893562465
H                62.9951775864       52.9257572827      221.5095030346
H                62.6970119924       54.3827936936      220.8764315145
H                61.2541554801       52.0107837079      220.3290157748
H                61.3930361296       51.7155322846      218.8201649848
N                68.7653095905       56.5699029636      221.6773742742
C                68.2982114488       57.7163402884      222.3894608631
C                68.3520581504       58.9713136140      221.4465843877
O                67.3561928746       59.6409737161      221.2331003677
C                69.1489538487       57.8810604217      223.6058210342
O                68.3289042624       58.5165982506      224.4522892527
C                70.5021615652       58.6683243389      223.3730615316
H                69.4475487596       56.1329581014      222.0848852848
H                67.3655039162       57.6341646661      222.6314114223
H                69.4583226525       57.0028909431      223.9331363409
H                68.8406324504       58.9132112173      225.1546540871
H                71.0161723228       58.7049827692      224.2029888871
H                71.0327427936       58.2140230137      222.6759134804
H                70.2974000946       59.5861808803      223.0695307386
N                69.4929949584       59.2636670240      220.8374379155
C                69.7099053285       60.4831694585      220.0955515463
C                69.0075952439       60.4757707998      218.7676592511
O                68.5457985879       61.5005400449      218.3420133376
C                71.2245498339       60.7666124948      220.0131276415
O                71.9797541073       59.4962185530      219.9300609439
H                70.2315969654       58.7070620187      220.8492615488
H                69.3152164788       61.2470651919      220.5772029328
H                71.4005258510       61.3150957609      219.2116648776
H                71.5185991920       61.2251205008      220.8218892720
H                72.7566501041       59.6797061579      219.5262864068
N                66.1588354291       59.0659202482      218.0621749037
C                64.7753103290       59.3088674663      218.3898282414
C                64.5959578072       60.8069167325      218.5960539292
O                63.6105638734       61.3778250558      218.1195391558
C                64.2887759478       58.4381710708      219.5238440802
C                62.8499317900       58.2749381563      219.6487454333
C                62.1942057832       57.3356071183      218.6688482847
O                62.7956358388       56.3488687885      218.3339439235
N                60.8975073567       57.6360999381      218.1911907955
H                66.5801601951       58.5236849374      218.6908169620
H                64.1932097863       59.0723916401      217.6113648332
H                64.6875661880       57.5391884240      219.4176073033
H                64.6447260821       58.8404558828      220.3759712513
H                62.6111318321       57.9489113605      220.5721794903
H                62.3970745197       59.1808314625      219.5481043626
H                60.4959324156       58.3795079475      218.5042810188
H                60.5093201993       57.1156888420      217.6171075461
N                65.5628881562       61.5046364744      219.1914650955
C                65.4587161573       62.9389346784      219.4029699494
C                65.5827940172       63.7115046316      218.0755969393
O                64.8576199391       64.6694021830      217.8075513886
C                66.4737667128       63.4385463629      220.4019472838
H                66.3373260371       61.1375311836      219.4943558889
H                64.5439415052       63.1140266491      219.7613781695
H                66.3972855794       64.4080953459      220.4983781994
H                66.3221479707       62.9916621940      221.2710570669
H                67.3827896150       63.2021049291      220.0712398161
N                62.2461557916       63.8360752876      216.4557984621
C                61.2765396848       64.7731927603      217.0151249114
C                61.6271007430       66.1649494115      216.6001418056
O                60.8126621522       66.8123292591      215.9494452735
C                61.1159874564       64.6756081587      218.4828881226
C                60.3800717790       63.4923063200      218.7817752492
C                60.8746601822       62.2901707586      219.2492323016
C                58.9837535708       63.2840377239      218.5515883629
N                59.8892427664       61.3509982351      219.3741060268
C                58.7061327021       61.9077875333      218.9244786936
C                57.9446498285       64.0760137460      218.1215986429
C                57.4255545115       61.3726277599      218.8622606784
C                56.6960414647       63.5105405361      218.0601608443
C                56.4435115278       62.1833519028      218.4102902430
H                62.7404940829       63.3863521894      217.0986954843
H                60.3946065899       64.5159674058      216.6258185068
H                62.0159795608       64.6382430029      218.9377840896
H                60.6326379713       65.4691771879      218.8499753379
H                61.8059105443       62.1293965039      219.4782638490
H                59.9853721455       60.5149283524      219.6873231640
H                58.0986809997       64.9818209679      217.8620189564
H                57.2560081062       60.4564425846      219.1413740728
H                55.9473131506       64.0557316629      217.7285752845
H                55.5405904835       61.8231771288      218.3412923722
N                71.9548113308       68.1330957962      216.8391751967
C                71.6203646581       66.8093398799      216.3964942470
C                71.8124265271       66.5991420574      214.8170158361
O                72.0928843661       65.4657959666      214.3463869656
C                70.2430282834       66.4047554676      216.8232001091
C                69.9128741233       66.3652885906      218.2350874340
C                68.6259991299       65.4715259825      218.3425923077
C                71.0571103756       65.8423657412      218.9205609034
H                71.2793904448       68.5873279176      217.2322806411
H                72.2659251196       66.1709169682      216.8059781412
H                69.6034930418       67.0407166735      216.3682478709
H                70.0518085540       65.4902055830      216.4388701028
H                69.7122867630       67.2468679327      218.6600874422
H                68.3658656089       65.4150918693      219.3186215492
H                67.8952627600       65.8939470057      217.8506594174
H                68.8244293009       64.5832306861      218.0133909273
H                70.8680346551       65.7787841840      219.9171527738
H                71.2595814476       64.9246916530      218.6034725989
H                71.8386992953       66.4205502274      218.7970576520
N                75.5203295580       65.2910016236      220.7005564692
C                74.3008271235       65.0740912535      221.4424428385
C                74.3082257822       65.7764013381      222.7703351336
O                73.2834565372       66.2381979941      223.1959810472
C                74.0173840873       63.5594467481      221.5248667432
O                75.2877780290       62.8042424748      221.6079334409
H                76.0769345633       64.5523996166      220.6887328359
H                73.5369313901       65.4687801032      220.9607914519
H                73.4689008212       63.3834707311      222.3263295072
H                73.5588760813       63.2653973901      220.7161051128
H                75.1042904241       62.0273464780      222.0117079780
N                75.4439167004       65.8941343967      223.4557895662
C                75.5424065924       66.5615951322      224.7249644928
C                75.2344412872       68.0288717836      224.5378260165
O                74.5658136376       68.6493145709      225.3528459086
C                76.9056081198       66.4157545044      225.4375075175
C                77.2753753680       64.9917252602      225.8482841308
C                76.3456422511       64.3900756929      226.8852305348
O                75.9645941484       65.0831357146      227.9139584679
O                75.9152697300       63.2356144991      226.6437118583
H                76.2632569343       65.5405306882      223.1554447571
H                74.8706767795       66.1249246137      225.3237331881
H                77.6092519455       66.7403923106      224.8126524405
H                76.9030424966       66.9681013494      226.2485729622
H                77.2380563932       64.4089719514      225.0393938550
H                78.1895814633       64.9865648205      226.2113026380
N                73.2793601077       69.2211084259      222.3465292893
C                71.8450619036       69.3252804247      222.1350244354
C                71.0724919504       69.2012025648      223.4623974455
O                70.1145943991       69.9263766429      223.7304429962
C                71.3454502191       68.3102298692      221.1360471009
H                73.6464653985       68.4466705450      222.0436384959
H                71.6699699329       70.2400550768      221.7766162153
H                70.3759012361       68.3867110026      221.0396161853
H                71.7923343881       68.4618486113      220.2669373179
H                71.5818916529       67.4012069671      221.4667545687
N                71.4373687053       68.2560721990      224.2613344468
C                70.8993483607       68.1097582148      225.5936230461
C                70.9537178276       69.4655034754      226.3900971410
O                70.0561965030       69.7915815653      227.1968998960
C                71.5849443684       67.0209073672      226.3878894754
C                71.0628787815       66.6596063954      227.7217027145
C                72.1070500018       65.8862395097      228.5847778856
C                72.4980619698       64.5725082951      227.9695725482
N                73.4311402186       63.9250781702      228.8212790779
H                72.0761443032       67.6147397730      224.0713545983
H                69.9330658000       67.8754026423      225.5199118323
H                71.5955827661       66.1918121443      225.8305122637
H                72.5506805560       67.3011759149      226.5137591245
H                70.8030425450       67.4826028943      228.2200563278
H                70.2620794546       66.0785432256      227.6312611341
H                72.9082106688       66.4512506523      228.6824327904
H                71.7164330912       65.7120111574      229.4843611856
H                71.6935922019       64.0073781743      227.8381768503
H                72.9297502096       64.7334488573      227.0907611054
H                73.6864286839       63.0907170243      228.4784604462
H                74.1753219310       64.4073128336      228.9756248344
H                73.0358095668       63.7297192492      229.6600831163
N                68.1330957962       71.9548113308      224.6988191881
C                66.8093398799       71.6203646581      225.1415001378
C                66.5991420574       71.8124265271      226.7209785486
O                65.4657959666       72.0928843661      227.1916074192
C                66.4047554676       70.2430282834      224.7147942757
C                66.3652885906       69.9128741233      223.3029069508
C                65.4715259825       68.6259991299      223.1954020771
C                65.8423657412       71.0571103756      222.6174334813
H                68.5873279176       71.2793904448      224.3057137437
H                66.1709169682       72.2659251196      224.7320162435
H                67.0407166735       69.6034930418      225.1697465139
H                65.4902055830       70.0518085540      225.0991242819
H                67.2468679327       69.7122867630      222.8779069426
H                65.4150918693       68.3658656089      222.2193728356
H                65.8939470057       67.8952627600      223.6873349674
H                64.5832306861       68.8244293009      223.5246034575
H                65.7787841840       70.8680346551      221.6208416110
H                64.9246916530       71.2595814476      222.9345217859
H                66.4205502274       71.8386992953      222.7409367328
H                58.6572362301       66.2107800294      224.2759939195
H                55.4854413748       52.0615317121      225.0755685306
H                54.5893606786       50.6329128003      228.1968524381
H                62.7673976213       62.2276554977      234.0445744282
H                70.0468193201       59.1057301761      236.5361158206
H                66.3225160785       58.8591413721      238.9425756313
H                66.9222679106       56.0103724609      240.8675074524
H                59.6256984392       54.3189152541      230.3155617719
H                62.6638061625       52.9086438314      231.0008410549
H                61.4958824077       51.3036988578      226.6147114007
H                66.1810635747       51.2447400172      226.3582321766
H                64.4890848064       51.5214870745      221.9253913286
H                67.4578960519       53.8114197948      220.3193036846
H                68.0922521390       55.9798668942      221.5832939688
H                68.9285079611       59.6247004639      218.2485980938
H                66.2107800294       58.6572362301      217.2620004653
H                66.2684490956       63.4389255338      217.4006319409
H                61.8162226610       63.2161083585      215.9650862143
H                62.5129455072       66.5539602770      216.8530243876
H                72.6205009515       68.0886520024      217.4432298946
H                71.7094173767       67.3739873587      214.1933140852
H                75.3205484020       65.4935799142      219.8467124988
H                75.5794285057       68.5136303803      223.7340891678
H                73.6957999512       69.8946822916      221.9188891320
H                71.7209598988       70.0929713317      226.2573428814
H                68.0886520024       72.6205009515      224.0947644902
H                67.3739873587       71.7094173767      227.3446802995
