 319 
 
N                -0.1713564743       23.6696667551        9.5428549938
C                 0.4050973172       22.9348558245       10.6626038436
C                -0.1586378864       21.5078903829       10.6921570284
O                -1.2440081728       21.2315150844       10.2115180761
C                -0.0199065931       23.7269826750       11.9063383364
C                -0.3297754301       25.1175547523       11.3594456422
C                -0.9322797033       24.8207159537        9.9909970026
H                 1.4943702917       22.8934759677       10.5564521298
H                -0.9202684352       23.2933181731       12.3423079371
H                 0.7633819276       23.7384458285       12.6593291978
H                -1.0198266450       25.6800762859       11.9812352713
H                 0.5837155439       25.7006072974       11.2482269150
H                -1.9923178372       24.5618295124       10.0832903555
H                -0.8221468090       25.6623595666        9.3079828092
N                 0.6351122103       20.6234741895       11.3214482159
C                 0.2637868913       19.2453253647       11.5465300435
C                -0.2619827962       19.0739683754       12.9798667894
O                 0.4884283965       19.1032019128       13.9504839516
C                 1.4725021421       18.3318225917       11.3497002033
C                 1.1830257628       16.9413404337       11.8788126989
O                 0.0492238363       16.5646570819       12.1504527139
N                 2.2638575854       16.1693682580       12.0063217361
H                 1.5276646260       20.9306235037       11.6895646123
H                -0.5362360605       18.9980352202       10.8435346589
H                 1.7449934811       18.2688994842       10.2950474211
H                 2.3315249798       18.7301013760       11.8933008131
H                 2.1753057103       15.2420868922       12.3912575814
H                 3.1903714439       16.5554555346       11.8873457652
N                 1.5413563145       16.9935283662       15.5771604913
C                 2.8893774448       17.3486643588       15.9671573096
C                 3.0781669865       17.1473845721       17.4741359819
O                 2.2890126363       17.6058579661       18.2830635865
C                 3.1308216580       18.8320468475       15.6712235765
C                 4.5151784444       19.2271411222       16.0915485815
C                 4.7395870396       20.0103946236       17.2163818166
C                 5.6084691150       18.7804225810       15.3587135621
C                 6.0211926005       20.3853667302       17.5801166264
C                 6.8898361092       19.1552307970       15.7032780835
C                 7.1013836014       19.9769336137       16.8076529000
O                 8.3737491889       20.3849794933       17.0715003224
H                 1.0205448940       17.6990728866       15.0635233623
H                 3.6107540453       16.7237661147       15.4237402392
H                 2.9891841910       18.9996174981       14.6018926994
H                 2.3827445079       19.4096705484       16.2158918256
H                 3.8991996017       20.3298699600       17.8138791721
H                 5.4596713575       18.1431626026       14.4996193742
H                 6.1988782316       20.9915758535       18.4554451611
H                 7.7313782192       18.8211837811       15.1206789834
H                 8.3669591308       21.0216308683       17.8441297906
N                 6.7999424522       17.0138346178       18.8991098318
C                 8.2299965685       17.0357655457       19.1026826051
C                 8.5067852009       18.1426863155       20.1349192111
O                 7.6247801332       18.8982508994       20.5116471794
C                 9.0274808963       17.2797718586       17.8169736182
C                 8.4847621819       16.6241225162       16.4892045202
O                 7.4462045529       15.9529807422       16.5147954239
O                 9.1950340576       16.8796891686       15.4894383547
H                 6.3894138084       17.7849704174       18.3957632988
H                 8.4798845563       16.0585201979       19.5318560475
H                 9.0754692717       18.3474313744       17.5983338107
H                10.0484546348       16.9138357926       17.9330275101
N                 9.7712278338       18.2411088316       20.5868495746
C                10.1049669835       19.2082518978       21.6161646530
C                10.1949801463       20.6271612821       21.0440351257
O                 9.9548903188       21.6208360488       21.7138290299
C                11.4100886124       18.8088459435       22.3328955214
C                11.7486036195       19.7973818688       23.4470448953
C                11.2828079921       17.4030897948       22.9214545599
H                10.4839252528       17.6110287261       20.2557237002
H                 9.2775682683       19.2247188994       22.3369608998
H                12.2150760513       18.8213833863       21.5892869455
H                12.6859272158       19.5142164483       23.9170550650
H                11.8426210611       20.8074700202       23.0601582403
H                10.9630581498       19.7956212155       24.1981473761
H                12.2062975741       17.1358594827       23.4272988244
H                10.4697227816       17.3747102143       23.6425218689
H                11.0832253071       16.6573906383       22.1568465029
N                10.6478913038       20.7161359789       19.7811104627
C                10.8490072994       22.0201776091       19.1752654903
C                 9.5389358181       22.8087205891       19.1645828166
O                 8.4651417240       22.2706113101       18.8623114776
C                11.3628312158       21.8635154800       17.7484859504
H                10.6455461674       19.9049570708       19.1826490688
H                11.5908955553       22.5421748342       19.7871576717
H                11.4427969816       22.8363359532       17.2715377001
H                12.3469035244       21.4046005331       17.7661302016
H                10.6856923957       21.2437424265       17.1646523739
N                 9.5859747916       24.1071970124       19.4335402838
C                 8.3679078533       24.8990936412       19.3175469950
C                 7.9732891115       24.9824699375       17.8397145885
O                 8.8171262859       24.8859820450       16.9504044540
C                 8.7532050425       26.2677617992       19.8921720088
C                10.2574970828       26.3451235981       19.6357258966
C                10.7287829415       24.9057651363       19.8434329452
H                 7.5597864503       24.4110278237       19.8702264355
H                 8.2081877693       27.0782975095       19.4117065386
H                 8.5465082434       26.2801657807       20.9610805103
H                10.4369316955       26.6497984209       18.6055467741
H                10.7536442791       27.0402262912       20.3069768523
H                11.6042429158       24.6638546162       19.2403479081
H                10.9420133154       24.7020414872       20.8979190121
N                 6.6678440407       25.1452231923       17.5892473161
C                 6.1931258670       25.4083741360       16.2416765717
C                 6.7279860360       26.7647159380       15.7541367408
O                 6.4975000123       27.7905980541       16.3828353591
C                 4.6600358491       25.4400550606       16.2392269987
C                 4.1497927471       25.5377491190       14.8274651959
C                 3.9049192673       24.3897676243       14.0861299735
C                 3.9543571289       26.7793775413       14.2354874533
C                 3.4859189599       24.4814365878       12.7710478480
C                 3.5385488058       26.8743196870       12.9197607552
C                 3.3112324112       25.7234356906       12.1836227089
H                 6.0649709366       25.4394302233       18.3446059509
H                 6.5603185125       24.6230372110       15.5801301935
H                 4.2945333543       24.5237407328       16.7037645170
H                 4.3425424359       26.3160607076       16.8100704911
H                 4.0411137731       23.4183468440       14.5362855455
H                 4.1338374979       27.6771754824       14.8096189584
H                 3.3071538884       23.5817804182       12.2022562470
H                 3.3973997567       27.8464998977       12.4691748077
H                 3.0047511572       25.7966939967       11.1508702841
N                 7.4282587184       26.7256320937       14.6161614897
C                 7.7610276649       27.9421622830       13.9006984000
C                 8.3055130907       27.6133818014       12.5200315268
O                 9.1499619586       26.7479058712       12.3430215207
C                 8.8335441343       28.7976547133       14.6025370179
C                 9.1081978740       30.0710532414       13.8075753249
C                 9.8895684987       31.1141473426       14.6573744247
O                11.1007827969       31.2807446510       14.3826618372
O                 9.2498135571       31.7056421089       15.5421877872
H                 7.6104208962       25.8402436251       14.1460344946
H                 6.8521899782       28.5461797297       13.8146296172
H                 8.4756573813       29.0661380538       15.5985884400
H                 9.7494130410       28.2133778936       14.7043063934
H                 9.6725736576       29.8480552248       12.9016108429
H                 8.1566828219       30.5305635777       13.5285911165
N                 7.8249967482       28.3879256807       11.5441777290
C                 8.3224655416       28.3636490280       10.1845489785
C                 8.8539682966       29.7523430739        9.8297743880
O                 8.2639853771       30.7627767047       10.2044386846
C                 7.1907364135       27.9678786905        9.2133763874
C                 7.7309221248       27.8729051897        7.7907766540
C                 6.5669736123       26.6509528714        9.6711085452
H                 7.1419328597       29.1008646060       11.7735991316
H                 9.1298644545       27.6271713054       10.1414146281
H                 6.4297522599       28.7550679023        9.2562615466
H                 6.9607122514       27.5039457652        7.1196433995
H                 8.0559837300       28.8476144909        7.4386499818
H                 8.5803992289       27.1968500278        7.7478865401
H                 5.9030063033       26.2611399771        8.9050054431
H                 7.3434508541       25.9178737086        9.8755843675
H                 5.9943944921       26.7894680874       10.5860976127
N                 9.9705845438       29.7867251987        9.0936787528
C                10.5562291920       31.0423992722        8.6744048468
C                10.7833028728       31.0757300519        7.1649233740
O                11.1879138310       30.1005817605        6.5364856376
C                11.8947028451       31.2949973593        9.3883121499
C                11.6594173263       31.5583113966       10.8746227712
C                12.9476101303       31.7521804047       11.6776470640
N                13.8027391288       30.5819643665       11.6482388254
C                13.4912223404       29.4278326014       12.2333297387
N                12.4902908140       29.3169764327       13.0855451419
N                14.2462428311       28.3474544459       11.9797779718
H                10.4103958113       28.9259529713        8.7832352744
H                 9.8515014021       31.8331835825        8.9478361481
H                12.5264835731       30.4168315072        9.2436764801
H                12.3870445162       32.1482681044        8.9172314966
H                11.0470210370       32.4522535047       10.9937351210
H                11.1020037757       30.7219775493       11.2950415268
H                13.5219924134       32.5789089558       11.2637862356
H                12.6736447052       31.9824862430       12.7093972507
H                14.5824283773       30.6100078396       11.0031138122
H                11.9829738711       30.1241589011       13.4959574513
H                12.3561086658       28.4023819436       13.5041729274
H                14.9330483402       28.3446758507       11.2461143850
H                14.0008393678       27.4712203119       12.4146399933
N                11.3392421809       24.8359617758        8.1312818841
C                10.4185221422       24.3190080489        9.1260045173
C                11.2036515632       23.8642222726       10.3626482456
O                12.0672490862       23.0015478721       10.2925594415
C                 9.6727805993       23.1064915559        8.5490125899
C                 9.0978399769       23.4048849284        7.1917040343
C                 8.0523285133       24.3052884278        7.0420679617
C                 9.6266484678       22.7891669508        6.0643539062
C                 7.5334492163       24.5740822564        5.7876170998
C                 9.1114995965       23.0627659688        4.8096401556
C                 8.0607018874       23.9517555451        4.6696914413
H                11.8342000521       24.1498908091        7.5820728589
H                 9.7348931450       25.1354382943        9.3765079723
H                10.3874062386       22.2832154652        8.4651984406
H                 8.8885883217       22.8090299396        9.2485135174
H                 7.6479506053       24.7997369202        7.9098533959
H                10.4445706376       22.0918358842        6.1808503200
H                 6.7209492970       25.2758695709        5.6801828262
H                 9.5424760735       22.6036118718        3.9343271615
H                 7.6617779916       24.1542938634        3.6883693076
N                10.8658565033       24.4304935984       11.5348182763
C                11.6398525309       24.1245213889       12.7262552979
C                11.9019615355       22.6242469087       12.8311211111
O                13.0017377864       22.1740701527       13.0937247996
C                10.9457631966       24.6311931378       13.9917605800
C                11.5646710470       25.9210828801       14.5044402781
O                12.3975608858       26.5590304618       13.8776126933
N                11.1397699848       26.2870854072       15.7181518484
H                10.2185114247       25.2082124882       11.6046799564
H                12.6287542819       24.6001650320       12.6411890383
H                 9.8932694162       24.8240076303       13.7761458948
H                10.9979673687       23.8784075584       14.7786404436
H                11.4668690788       27.1564058030       16.1127534117
H                10.3818220652       25.7972411969       16.1759346037
N                10.7929710776       21.8487585020       12.7749593691
C                10.9248776443       20.4270852554       12.5621929953
C                10.1373342287       20.0599522782       11.3074137178
O                 9.1268644012       20.6663161395       10.9757822319
C                10.4117571591       19.5873522083       13.7640234771
O                 9.5577494554       18.5544829895       13.3097048053
H                 9.9403733786       22.2501106985       12.4029498485
H                11.9886001164       20.2286939139       12.3980278637
H                11.2630412695       19.1613868154       14.3024182102
H                 9.8713950662       20.2522105413       14.4506941437
H                 9.4402525315       17.9081870483       14.0419960390
N                10.6160141957       19.0102075483       10.6385988981
C                10.0605568060       18.5950291712        9.3700695420
C                 8.6546232744       18.0015679389        9.5038888759
O                 7.9678368463       17.8075349715        8.5133308740
C                11.0096797762       17.6049110340        8.6912871884
C                12.2596884214       18.3162475972        8.1645964941
C                11.8439653187       19.2450407879        7.0000531343
O                11.5269103852       18.6433331414        5.9377137747
O                11.8052448188       20.4672285186        7.1800184451
H                11.4671997365       18.5621951515       10.9422815049
H                 9.9542507282       19.4809366743        8.7278214240
H                11.2808737559       16.8212790933        9.4024136839
H                10.4923479332       17.1452044879        7.8474464105
H                12.7417589959       18.9145118555        8.9388587991
H                12.9665574684       17.5812646770        7.7789789741
N                 8.2543579098       17.7187588158       10.7516607085
C                 6.9794261141       17.1084851038       11.0447247451
C                 5.9686976795       18.0996729986       11.6209617265
O                 4.8563334234       17.7345642988       11.9837553303
C                 7.1569575240       15.9092294473       11.9817944530
C                 7.9972250182       14.8343658895       11.3703360858
N                 8.5003866857       13.8140690804       12.1271882019
C                 8.3912868157       14.6690893969       10.0675886690
C                 9.1789590125       13.0586056456       11.3073070149
N                 9.1471711842       13.5296579438       10.0420480018
H                 8.8671935075       17.8836529785       11.5435481262
H                 6.5594154368       16.7694014156       10.0872100972
H                 7.6211067531       16.2315196373       12.9185945066
H                 6.1704032065       15.5122986357       12.2327064618
H                 8.2155105220       15.2535670679        9.1883799920
H                 9.6986382782       12.1688054151       11.5972499490
H                 9.5931296635       13.1377827413        9.2283378664
N                 6.3456708396       19.3836314793       11.6494593677
C                 5.4654196235       20.4223599249       12.1404560949
C                 4.3264731318       20.7393598322       11.1712473830
O                 3.3745511648       21.4167922029       11.5329657345
C                 6.2445016369       21.7183992560       12.3855512272
C                 7.1353174151       21.5772322893       13.6099686394
C                 7.7578108626       22.8714283757       14.0857179602
O                 7.6120590486       23.9519175108       13.5250889175
N                 8.4896622706       22.7367441338       15.1986338945
H                 7.2793599265       19.6531319300       11.3617063687
H                 5.0085923672       20.0849180553       13.0802592978
H                 6.8556147947       21.9443670539       11.5091484873
H                 5.5415054432       22.5380736970       12.5406889764
H                 6.5473956585       21.1818243058       14.4414328175
H                 7.9301283203       20.8596933642       13.4053541066
H                 8.5188077717       21.8573955795       15.6946771009
H                 8.7829801293       23.5656111598       15.7101611310
N                 4.4837515134       20.2833403602        9.9296467841
C                 3.7490061176       20.7577882147        8.7792741746
C                 3.1706524365       19.5850702474        7.9936801939
O                 3.7941912944       18.5485330687        7.7977424032
C                 4.7442013566       21.5644326836        7.9083323216
C                 4.2488019181       21.7542164725        6.4840808650
C                 5.0059050087       22.9165657242        8.5608301889
H                 5.2749044065       19.6933663283        9.7124465703
H                 2.9361972668       21.3997592793        9.1266179095
H                 5.6781639412       20.9916484323        7.8730941656
H                 4.9887220023       22.3183166827        5.9224130531
H                 4.1064631109       20.7950512901        5.9947157888
H                 3.3067194928       22.2956914693        6.4784957273
H                 5.7453591895       23.4640214148        7.9845714298
H                 4.0853937300       23.4938156163        8.5983429121
H                 5.3750012660       22.8005497732        9.5767034391
N                16.6598170422       22.4617298453       17.9457982789
C                15.9186754202       23.6080260621       17.4552989562
C                15.0564204598       24.1688849981       18.5971135643
O                14.2566244278       23.4695555295       19.2059700229
C                15.0230989905       23.1997116486       16.2817282890
C                14.1460359457       24.3723794043       15.8593018292
C                15.8435851882       22.7217520686       15.0870263944
H                16.5918502583       21.5811023403       17.4498684142
H                16.6291844560       24.3851741531       17.1426360681
H                14.3834555154       22.3854203750       16.6380925112
H                13.5920548386       24.0912589743       14.9703373084
H                13.4523720094       24.6477652651       16.6492486058
H                14.7634929539       25.2361556743       15.6266372955
H                15.1721751770       22.3202385542       14.3328939711
H                16.3842588170       23.5562137651       14.6499596844
H                16.5590488062       21.9565905241       15.3708254608
N                15.2038181338       25.4832951215       18.8029734950
C                14.4978971498       26.2164134639       19.8203978989
C                15.2861569125       26.4178537537       21.1097197238
O                14.9391224867       27.2561135933       21.9370764773
H                15.9599343352       25.9763613814       18.3464499617
H                14.2237262590       27.2066800780       19.4365977766
H                13.5901755482       25.6640470018       20.0794308498
H                 0.4856444592       23.9371974952        8.9889803903
H                -1.2390209513       18.9342065629       13.1406868104
H                 1.5637384157       16.2673295093       15.0459973696
H                 3.8629455480       16.6297603131       17.8149992034
H                 6.5742065031       16.2783176190       18.4321429960
H                10.6015621153       31.9136887143        6.6503404582
H                10.8895329284       25.3467970706        7.5423770617
H                 2.2471134164       19.6440099753        7.6147319299
H                17.5397018162       22.6509429338       17.9468899068
H                16.0982665064       25.8632524863       21.2910907295
